* NGSPICE file created from adc1.ext - technology: sky130A

.subckt sky130_fd_sc_hd__a311o_1 A1 A2 A3 B1 C1 VGND VNB VPB VPWR X a_208_47# a_75_199#
+ a_544_297# a_315_47# a_201_297#
X0 a_75_199# C1 VGND VNB sky130_fd_pr__nfet_01v8 ad=0.169 pd=1.82 as=0.135 ps=1.07 w=0.65 l=0.15
X1 a_208_47# A3 VGND VNB sky130_fd_pr__nfet_01v8 ad=0.125 pd=1.03 as=0.112 ps=0.995 w=0.65 l=0.15
X2 a_315_47# A2 a_208_47# VNB sky130_fd_pr__nfet_01v8 ad=0.169 pd=1.17 as=0.125 ps=1.03 w=0.65 l=0.15
X3 VGND B1 a_75_199# VNB sky130_fd_pr__nfet_01v8 ad=0.135 pd=1.07 as=0.106 ps=0.975 w=0.65 l=0.15
X4 a_75_199# A1 a_315_47# VNB sky130_fd_pr__nfet_01v8 ad=0.106 pd=0.975 as=0.169 ps=1.17 w=0.65 l=0.15
X5 a_75_199# C1 a_544_297# VPB sky130_fd_pr__pfet_01v8_hvt ad=0.26 pd=2.52 as=0.207 ps=1.41 w=1 l=0.15
X6 a_544_297# B1 a_201_297# VPB sky130_fd_pr__pfet_01v8_hvt ad=0.207 pd=1.41 as=0.162 ps=1.33 w=1 l=0.15
X7 VPWR a_75_199# X VPB sky130_fd_pr__pfet_01v8_hvt ad=0.142 pd=1.28 as=0.285 ps=2.57 w=1 l=0.15
X8 a_201_297# A3 VPWR VPB sky130_fd_pr__pfet_01v8_hvt ad=0.165 pd=1.33 as=0.142 ps=1.28 w=1 l=0.15
X9 VPWR A2 a_201_297# VPB sky130_fd_pr__pfet_01v8_hvt ad=0.305 pd=1.61 as=0.165 ps=1.33 w=1 l=0.15
X10 a_201_297# A1 VPWR VPB sky130_fd_pr__pfet_01v8_hvt ad=0.162 pd=1.33 as=0.305 ps=1.61 w=1 l=0.15
X11 VGND a_75_199# X VNB sky130_fd_pr__nfet_01v8 ad=0.112 pd=0.995 as=0.169 ps=1.82 w=0.65 l=0.15
C0 VPWR VGND 0.0735f
C1 a_75_199# a_544_297# 0.0176f
C2 a_201_297# B1 0.00594f
C3 C1 VPB 0.0394f
C4 a_315_47# VGND 0.00427f
C5 a_75_199# VPB 0.0486f
C6 VGND A3 0.0161f
C7 VGND a_208_47# 0.00302f
C8 X B1 7.79e-20
C9 VGND A2 0.0119f
C10 VPWR A1 0.0151f
C11 VGND a_201_297# 0.00403f
C12 a_315_47# A1 0.00313f
C13 B1 a_544_297# 1.13e-19
C14 VPB B1 0.0292f
C15 a_75_199# C1 0.0628f
C16 A2 A1 0.0689f
C17 X VGND 0.0609f
C18 a_201_297# A1 0.011f
C19 a_315_47# VPWR 0.00154f
C20 VGND a_544_297# 0.00256f
C21 VPWR A3 0.0181f
C22 VGND VPB 0.00772f
C23 VPWR a_208_47# 8.35e-19
C24 VPWR A2 0.0174f
C25 X A1 1.2e-19
C26 C1 B1 0.066f
C27 a_75_199# B1 0.102f
C28 VPWR a_201_297# 0.211f
C29 a_315_47# A2 0.00335f
C30 A3 a_208_47# 3.65e-19
C31 VPB A1 0.0306f
C32 A3 A2 0.0747f
C33 A3 a_201_297# 0.00642f
C34 A2 a_208_47# 0.00102f
C35 X VPWR 0.0676f
C36 C1 VGND 0.0181f
C37 a_75_199# VGND 0.362f
C38 a_201_297# A2 0.0112f
C39 VPWR a_544_297# 0.0105f
C40 X A3 0.00317f
C41 VPWR VPB 0.0749f
C42 X a_208_47# 1.91e-19
C43 X A2 3.01e-19
C44 C1 A1 3.21e-19
C45 VPB A3 0.0268f
C46 a_75_199# A1 0.0696f
C47 X a_201_297# 0.0131f
C48 VGND B1 0.0171f
C49 a_201_297# a_544_297# 0.00702f
C50 VPB A2 0.0376f
C51 VPB a_201_297# 0.00186f
C52 C1 VPWR 0.0146f
C53 a_75_199# VPWR 0.109f
C54 X a_544_297# 2.35e-19
C55 A1 B1 0.0716f
C56 a_315_47# a_75_199# 0.0202f
C57 X VPB 0.0107f
C58 a_75_199# A3 0.163f
C59 a_75_199# a_208_47# 0.0159f
C60 a_75_199# A2 0.0621f
C61 C1 a_201_297# 0.00243f
C62 a_75_199# a_201_297# 0.16f
C63 VPWR B1 0.0125f
C64 VGND A1 0.0113f
C65 C1 X 5.14e-20
C66 a_75_199# X 0.0959f
C67 VGND VNB 0.437f
C68 VPWR VNB 0.365f
C69 X VNB 0.0906f
C70 C1 VNB 0.148f
C71 B1 VNB 0.0947f
C72 A1 VNB 0.101f
C73 A2 VNB 0.11f
C74 A3 VNB 0.0908f
C75 VPB VNB 0.782f
C76 a_201_297# VNB 0.00345f
C77 a_75_199# VNB 0.205f
.ends

.subckt sky130_fd_sc_hd__and3_1 A B C VGND VNB VPB VPWR X a_181_47# a_109_47# a_27_47#
X0 VPWR A a_27_47# VPB sky130_fd_pr__pfet_01v8_hvt ad=0.0567 pd=0.69 as=0.109 ps=1.36 w=0.42 l=0.15
X1 VPWR C a_27_47# VPB sky130_fd_pr__pfet_01v8_hvt ad=0.142 pd=1.34 as=0.0662 ps=0.735 w=0.42 l=0.15
X2 a_181_47# B a_109_47# VNB sky130_fd_pr__nfet_01v8 ad=0.0441 pd=0.63 as=0.0441 ps=0.63 w=0.42 l=0.15
X3 VGND C a_181_47# VNB sky130_fd_pr__nfet_01v8 ad=0.132 pd=1.14 as=0.0441 ps=0.63 w=0.42 l=0.15
X4 a_27_47# B VPWR VPB sky130_fd_pr__pfet_01v8_hvt ad=0.0662 pd=0.735 as=0.0567 ps=0.69 w=0.42 l=0.15
X5 X a_27_47# VPWR VPB sky130_fd_pr__pfet_01v8_hvt ad=0.26 pd=2.52 as=0.142 ps=1.34 w=1 l=0.15
X6 X a_27_47# VGND VNB sky130_fd_pr__nfet_01v8 ad=0.169 pd=1.82 as=0.132 ps=1.14 w=0.65 l=0.15
X7 a_109_47# A a_27_47# VNB sky130_fd_pr__nfet_01v8 ad=0.0441 pd=0.63 as=0.109 ps=1.36 w=0.42 l=0.15
C0 a_181_47# VGND 0.00261f
C1 a_27_47# a_181_47# 0.00401f
C2 B VPWR 0.128f
C3 C X 0.0149f
C4 A VPWR 0.0185f
C5 VPWR VGND 0.0475f
C6 VPWR a_27_47# 0.145f
C7 A a_109_47# 6.45e-19
C8 a_109_47# VGND 0.00123f
C9 a_27_47# a_109_47# 0.00517f
C10 VPB VPWR 0.0795f
C11 A B 0.0869f
C12 VPWR X 0.0766f
C13 B VGND 0.00714f
C14 B a_27_47# 0.0625f
C15 A VGND 0.0154f
C16 A a_27_47# 0.157f
C17 a_181_47# C 0.00151f
C18 a_27_47# VGND 0.134f
C19 VPB B 0.0836f
C20 A VPB 0.0426f
C21 B X 0.00111f
C22 VPWR C 0.00464f
C23 VPB VGND 0.00604f
C24 VPB a_27_47# 0.0501f
C25 X VGND 0.0708f
C26 a_27_47# X 0.087f
C27 VPWR a_181_47# 3.97e-19
C28 B C 0.0746f
C29 VPB X 0.0121f
C30 C VGND 0.0703f
C31 a_27_47# C 0.186f
C32 VPWR a_109_47# 3.29e-19
C33 VPB C 0.0347f
C34 VGND VNB 0.3f
C35 X VNB 0.0923f
C36 C VNB 0.12f
C37 A VNB 0.174f
C38 VPWR VNB 0.274f
C39 B VNB 0.102f
C40 VPB VNB 0.516f
C41 a_27_47# VNB 0.177f
.ends

.subckt sky130_fd_sc_hd__decap_3 VGND VNB VPB VPWR
X0 VPWR VGND VPWR VPB sky130_fd_pr__pfet_01v8_hvt ad=0.226 pd=2.26 as=0.452 ps=4.52 w=0.87 l=0.59
X1 VGND VPWR VGND VNB sky130_fd_pr__nfet_01v8 ad=0.143 pd=1.62 as=0.286 ps=3.24 w=0.55 l=0.59
C0 VGND VPWR 0.353f
C1 VPB VPWR 0.0625f
C2 VPB VGND 0.0797f
C3 VPWR VNB 0.47f
C4 VGND VNB 0.427f
C5 VPB VNB 0.339f
.ends

.subckt sky130_fd_sc_hd__decap_4 VGND VNB VPB VPWR
X0 VPWR VGND VPWR VPB sky130_fd_pr__pfet_01v8_hvt ad=0.226 pd=2.26 as=0.452 ps=4.52 w=0.87 l=1.05
X1 VGND VPWR VGND VNB sky130_fd_pr__nfet_01v8 ad=0.143 pd=1.62 as=0.286 ps=3.24 w=0.55 l=1.05
C0 VGND VPWR 0.546f
C1 VPB VPWR 0.0787f
C2 VPB VGND 0.116f
C3 VPWR VNB 0.619f
C4 VGND VNB 0.554f
C5 VPB VNB 0.428f
.ends

.subckt sky130_fd_sc_hd__a21o_1 A1 A2 B1 VGND VNB VPB VPWR X a_384_47# a_81_21# a_299_297#
X0 a_81_21# B1 VGND VNB sky130_fd_pr__nfet_01v8 ad=0.0894 pd=0.925 as=0.257 ps=1.44 w=0.65 l=0.15
X1 a_299_297# B1 a_81_21# VPB sky130_fd_pr__pfet_01v8_hvt ad=0.138 pd=1.27 as=0.26 ps=2.52 w=1 l=0.15
X2 VPWR a_81_21# X VPB sky130_fd_pr__pfet_01v8_hvt ad=0.26 pd=2.52 as=0.26 ps=2.52 w=1 l=0.15
X3 VPWR A1 a_299_297# VPB sky130_fd_pr__pfet_01v8_hvt ad=0.14 pd=1.28 as=0.138 ps=1.27 w=1 l=0.15
X4 VGND a_81_21# X VNB sky130_fd_pr__nfet_01v8 ad=0.257 pd=1.44 as=0.169 ps=1.82 w=0.65 l=0.15
X5 VGND A2 a_384_47# VNB sky130_fd_pr__nfet_01v8 ad=0.172 pd=1.83 as=0.091 ps=0.93 w=0.65 l=0.15
X6 a_299_297# A2 VPWR VPB sky130_fd_pr__pfet_01v8_hvt ad=0.265 pd=2.53 as=0.14 ps=1.28 w=1 l=0.15
X7 a_384_47# A1 a_81_21# VNB sky130_fd_pr__nfet_01v8 ad=0.091 pd=0.93 as=0.0894 ps=0.925 w=0.65 l=0.15
C0 B1 A1 0.0817f
C1 VPB A2 0.0373f
C2 a_81_21# B1 0.148f
C3 A2 VPWR 0.0201f
C4 VGND A2 0.0495f
C5 a_384_47# VPWR 4.08e-19
C6 a_299_297# A2 0.0468f
C7 VPB VPWR 0.068f
C8 VPB X 0.0108f
C9 A2 A1 0.0921f
C10 a_384_47# VGND 0.00366f
C11 VPB VGND 0.00713f
C12 X VPWR 0.0847f
C13 a_299_297# a_384_47# 1.48e-19
C14 VPB a_299_297# 0.0111f
C15 a_384_47# A1 0.00884f
C16 VGND VPWR 0.0579f
C17 VGND X 0.0512f
C18 VPB A1 0.0264f
C19 a_299_297# VPWR 0.202f
C20 a_81_21# A2 7.47e-19
C21 A1 VPWR 0.0209f
C22 a_299_297# VGND 0.00772f
C23 VGND A1 0.0786f
C24 a_81_21# a_384_47# 0.00138f
C25 VPB a_81_21# 0.0593f
C26 a_299_297# A1 0.0585f
C27 VPB B1 0.0387f
C28 a_81_21# VPWR 0.146f
C29 a_81_21# X 0.112f
C30 B1 VPWR 0.0196f
C31 X B1 3.04e-20
C32 a_81_21# VGND 0.173f
C33 VGND B1 0.0181f
C34 a_81_21# a_299_297# 0.0821f
C35 a_81_21# A1 0.0568f
C36 a_299_297# B1 0.00863f
C37 VGND VNB 0.364f
C38 VPWR VNB 0.286f
C39 X VNB 0.0945f
C40 A2 VNB 0.144f
C41 A1 VNB 0.0996f
C42 B1 VNB 0.109f
C43 VPB VNB 0.605f
C44 a_299_297# VNB 0.0348f
C45 a_81_21# VNB 0.147f
.ends

.subckt sky130_fd_pr__nfet_01v8_D7Y3TR a_n63_n101# a_n33_n75# a_n249_n145# a_63_n75#
+ a_n125_n75#
X0 a_63_n75# a_n63_n101# a_n33_n75# a_n249_n145# sky130_fd_pr__nfet_01v8 ad=0.233 pd=2.12 as=0.124 ps=1.08 w=0.75 l=0.15
X1 a_n33_n75# a_n63_n101# a_n125_n75# a_n249_n145# sky130_fd_pr__nfet_01v8 ad=0.124 pd=1.08 as=0.233 ps=2.12 w=0.75 l=0.15
C0 a_n125_n75# a_n33_n75# 0.113f
C1 a_n63_n101# a_63_n75# 0.0104f
C2 a_63_n75# a_n33_n75# 0.113f
C3 a_n63_n101# a_n33_n75# 0.0186f
C4 a_n63_n101# a_n125_n75# 0.00451f
C5 a_63_n75# a_n249_n145# 0.0963f
C6 a_n33_n75# a_n249_n145# 0.0361f
C7 a_n125_n75# a_n249_n145# 0.105f
C8 a_n63_n101# a_n249_n145# 0.294f
.ends

.subckt sky130_fd_pr__pfet_01v8_2ZD99F w_n349_n261# a_n153_n139# a_n211_n42# a_153_n42#
+ VSUBS
X0 a_153_n42# a_n153_n139# a_n211_n42# w_n349_n261# sky130_fd_pr__pfet_01v8 ad=0.122 pd=1.42 as=0.122 ps=1.42 w=0.42 l=1.53
C0 a_n153_n139# a_n211_n42# 0.0177f
C1 w_n349_n261# a_153_n42# 0.0179f
C2 a_153_n42# a_n211_n42# 0.0169f
C3 w_n349_n261# a_n211_n42# 0.034f
C4 a_153_n42# a_n153_n139# 0.0177f
C5 w_n349_n261# a_n153_n139# 0.388f
C6 a_153_n42# VSUBS 0.0558f
C7 a_n211_n42# VSUBS 0.0456f
C8 a_n153_n139# VSUBS 0.556f
C9 w_n349_n261# VSUBS 1.16f
.ends

.subckt sky130_fd_pr__nfet_01v8_2BW22M a_154_n42# a_n154_n130# a_n314_n182# a_n212_n42#
X0 a_154_n42# a_n154_n130# a_n212_n42# a_n314_n182# sky130_fd_pr__nfet_01v8 ad=0.122 pd=1.42 as=0.122 ps=1.42 w=0.42 l=1.54
C0 a_n212_n42# a_154_n42# 0.0169f
C1 a_n154_n130# a_154_n42# 0.0178f
C2 a_n154_n130# a_n212_n42# 0.0178f
C3 a_154_n42# a_n314_n182# 0.0737f
C4 a_n212_n42# a_n314_n182# 0.0816f
C5 a_n154_n130# a_n314_n182# 0.924f
.ends

.subckt sky130_fd_pr__pfet_01v8_XJP3BL a_15_n150# w_n211_n369# a_n73_n150# a_n33_n247#
+ VSUBS
X0 a_15_n150# a_n33_n247# a_n73_n150# w_n211_n369# sky130_fd_pr__pfet_01v8 ad=0.435 pd=3.58 as=0.435 ps=3.58 w=1.5 l=0.15
C0 a_n33_n247# a_n73_n150# 0.0267f
C1 w_n211_n369# a_15_n150# 0.0292f
C2 a_15_n150# a_n73_n150# 0.242f
C3 w_n211_n369# a_n73_n150# 0.0292f
C4 a_15_n150# a_n33_n247# 0.0267f
C5 w_n211_n369# a_n33_n247# 0.19f
C6 a_15_n150# VSUBS 0.126f
C7 a_n73_n150# VSUBS 0.126f
C8 a_n33_n247# VSUBS 0.146f
C9 w_n211_n369# VSUBS 1.02f
.ends

.subckt sky130_fd_pr__nfet_01v8_LH5FDA a_n150_n130# a_276_n182# a_n208_n42# a_150_n42#
X0 a_150_n42# a_n150_n130# a_n208_n42# a_276_n182# sky130_fd_pr__nfet_01v8 ad=0.122 pd=1.42 as=0.122 ps=1.42 w=0.42 l=1.5
C0 a_n208_n42# a_150_n42# 0.0172f
C1 a_n150_n130# a_150_n42# 0.0176f
C2 a_n150_n130# a_n208_n42# 0.0176f
C3 a_150_n42# a_276_n182# 0.0815f
C4 a_n208_n42# a_276_n182# 0.0736f
C5 a_n150_n130# a_276_n182# 0.904f
.ends

.subckt th02 Vin V02 m1_983_133# Vp m1_571_144# Vn
XXM0 Vin Vn Vn m1_983_133# m1_983_133# sky130_fd_pr__nfet_01v8_D7Y3TR
XXM1 Vp Vin m1_571_144# m1_983_133# Vn sky130_fd_pr__pfet_01v8_2ZD99F
XXM2 m1_571_144# Vp Vn Vp sky130_fd_pr__nfet_01v8_2BW22M
XXM3 V02 Vp Vp m1_983_133# Vn sky130_fd_pr__pfet_01v8_XJP3BL
XXM4 m1_983_133# Vn V02 Vn sky130_fd_pr__nfet_01v8_LH5FDA
C0 m1_571_144# Vn 0.00115f
C1 Vp Vn 0.0235f
C2 m1_983_133# V02 0.155f
C3 Vp m1_571_144# 0.176f
C4 m1_983_133# Vn 0.216f
C5 m1_571_144# m1_983_133# 0.0183f
C6 Vp m1_983_133# 0.366f
C7 Vin V02 0.00845f
C8 Vin Vn 0.0263f
C9 m1_571_144# Vin 0.332f
C10 Vp Vin 0.25f
C11 V02 Vn 0.00239f
C12 Vin m1_983_133# 0.279f
C13 m1_571_144# V02 0.011f
C14 Vp V02 0.118f
C15 Vn 0 0.263f
C16 V02 0 0.334f
C17 m1_983_133# 0 1.44f
C18 Vp 0 3.16f
C19 m1_571_144# 0 0.252f
C20 Vin 0 0.949f
.ends

.subckt sky130_fd_sc_hd__inv_2 A VGND VNB VPB VPWR Y
X0 Y A VPWR VPB sky130_fd_pr__pfet_01v8_hvt ad=0.135 pd=1.27 as=0.26 ps=2.52 w=1 l=0.15
X1 VGND A Y VNB sky130_fd_pr__nfet_01v8 ad=0.169 pd=1.82 as=0.0878 ps=0.92 w=0.65 l=0.15
X2 Y A VGND VNB sky130_fd_pr__nfet_01v8 ad=0.0878 pd=0.92 as=0.169 ps=1.82 w=0.65 l=0.15
X3 VPWR A Y VPB sky130_fd_pr__pfet_01v8_hvt ad=0.26 pd=2.52 as=0.135 ps=1.27 w=1 l=0.15
C0 VPWR Y 0.209f
C1 VPWR VPB 0.0521f
C2 A VGND 0.0638f
C3 A Y 0.0894f
C4 VGND Y 0.155f
C5 A VPB 0.0742f
C6 VGND VPB 0.00649f
C7 A VPWR 0.0631f
C8 VGND VPWR 0.0423f
C9 Y VPB 0.0061f
C10 VGND VNB 0.266f
C11 Y VNB 0.0332f
C12 VPWR VNB 0.246f
C13 A VNB 0.263f
C14 VPB VNB 0.339f
.ends

.subckt sky130_fd_sc_hd__or3_1 A B C VGND VNB VPB VPWR X a_29_53# a_183_297# a_111_297#
X0 X a_29_53# VPWR VPB sky130_fd_pr__pfet_01v8_hvt ad=0.28 pd=2.56 as=0.148 ps=1.34 w=1 l=0.15
X1 a_111_297# C a_29_53# VPB sky130_fd_pr__pfet_01v8_hvt ad=0.0441 pd=0.63 as=0.109 ps=1.36 w=0.42 l=0.15
X2 X a_29_53# VGND VNB sky130_fd_pr__nfet_01v8 ad=0.182 pd=1.86 as=0.102 ps=0.99 w=0.65 l=0.15
X3 a_183_297# B a_111_297# VPB sky130_fd_pr__pfet_01v8_hvt ad=0.0693 pd=0.75 as=0.0441 ps=0.63 w=0.42 l=0.15
X4 VPWR A a_183_297# VPB sky130_fd_pr__pfet_01v8_hvt ad=0.148 pd=1.34 as=0.0693 ps=0.75 w=0.42 l=0.15
X5 a_29_53# B VGND VNB sky130_fd_pr__nfet_01v8 ad=0.0567 pd=0.69 as=0.0567 ps=0.69 w=0.42 l=0.15
X6 VGND C a_29_53# VNB sky130_fd_pr__nfet_01v8 ad=0.0567 pd=0.69 as=0.109 ps=1.36 w=0.42 l=0.15
X7 VGND A a_29_53# VNB sky130_fd_pr__nfet_01v8 ad=0.102 pd=0.99 as=0.0567 ps=0.69 w=0.42 l=0.15
C0 a_29_53# VPB 0.0491f
C1 C A 0.0343f
C2 B C 0.0802f
C3 a_29_53# a_111_297# 0.005f
C4 VGND C 0.0161f
C5 VPB A 0.0377f
C6 X VPB 0.0109f
C7 B VPB 0.0962f
C8 VGND VPB 0.00724f
C9 a_111_297# A 0.00223f
C10 a_183_297# VPWR 8.13e-19
C11 a_29_53# A 0.242f
C12 a_29_53# X 0.0991f
C13 a_29_53# B 0.121f
C14 VGND a_111_297# 3.96e-19
C15 a_29_53# VGND 0.217f
C16 X A 0.00127f
C17 B A 0.0787f
C18 B X 6.52e-19
C19 VGND A 0.0187f
C20 VPWR C 0.00457f
C21 VGND X 0.036f
C22 B VGND 0.0152f
C23 VPWR VPB 0.0649f
C24 VPWR a_111_297# 5.94e-19
C25 a_29_53# a_183_297# 0.00868f
C26 a_29_53# VPWR 0.0833f
C27 VPB C 0.0396f
C28 a_183_297# A 0.00239f
C29 VPWR A 0.00936f
C30 VPWR X 0.0885f
C31 B VPWR 0.147f
C32 a_183_297# VGND 5.75e-19
C33 VPWR VGND 0.0459f
C34 a_29_53# C 0.0857f
C35 VGND VNB 0.306f
C36 X VNB 0.0882f
C37 A VNB 0.117f
C38 C VNB 0.16f
C39 B VNB 0.117f
C40 VPWR VNB 0.253f
C41 VPB VNB 0.516f
C42 a_29_53# VNB 0.18f
.ends

.subckt sky130_fd_sc_hd__decap_6 VGND VNB VPB VPWR
X0 VPWR VGND VPWR VPB sky130_fd_pr__pfet_01v8_hvt ad=0.226 pd=2.26 as=0.452 ps=4.52 w=0.87 l=1.97
X1 VGND VPWR VGND VNB sky130_fd_pr__nfet_01v8 ad=0.143 pd=1.62 as=0.286 ps=3.24 w=0.55 l=1.97
C0 VPB VPWR 0.0858f
C1 VGND VPWR 0.903f
C2 VGND VPB 0.161f
C3 VPWR VNB 0.867f
C4 VGND VNB 0.761f
C5 VPB VNB 0.605f
.ends

.subckt sky130_fd_sc_hd__nor2_1 A B VGND VNB VPB VPWR Y a_109_297#
X0 VPWR A a_109_297# VPB sky130_fd_pr__pfet_01v8_hvt ad=0.26 pd=2.52 as=0.105 ps=1.21 w=1 l=0.15
X1 VGND A Y VNB sky130_fd_pr__nfet_01v8 ad=0.169 pd=1.82 as=0.0878 ps=0.92 w=0.65 l=0.15
X2 a_109_297# B Y VPB sky130_fd_pr__pfet_01v8_hvt ad=0.105 pd=1.21 as=0.26 ps=2.52 w=1 l=0.15
X3 Y B VGND VNB sky130_fd_pr__nfet_01v8 ad=0.0878 pd=0.92 as=0.169 ps=1.82 w=0.65 l=0.15
C0 VPB VGND 0.00456f
C1 VPB B 0.0367f
C2 VGND A 0.0486f
C3 B A 0.0584f
C4 VGND VPWR 0.0314f
C5 B VPWR 0.0148f
C6 Y a_109_297# 0.0113f
C7 VPB Y 0.0139f
C8 A Y 0.0471f
C9 B VGND 0.0451f
C10 VPWR Y 0.0995f
C11 VPB A 0.0415f
C12 VPWR a_109_297# 0.00638f
C13 VPB VPWR 0.0449f
C14 VPWR A 0.0528f
C15 VGND Y 0.154f
C16 B Y 0.0877f
C17 VGND a_109_297# 0.00128f
C18 VGND VNB 0.263f
C19 VPWR VNB 0.214f
C20 Y VNB 0.0605f
C21 A VNB 0.149f
C22 B VNB 0.143f
C23 VPB VNB 0.339f
.ends

.subckt sky130_fd_sc_hd__a221o_1 A1 A2 B1 B2 C1 VGND VNB VPB VPWR X a_193_297# a_465_47#
+ a_205_47# a_109_297# a_27_47#
X0 a_465_47# A1 a_27_47# VNB sky130_fd_pr__nfet_01v8 ad=0.107 pd=0.98 as=0.169 ps=1.82 w=0.65 l=0.15
X1 X a_27_47# VPWR VPB sky130_fd_pr__pfet_01v8_hvt ad=0.26 pd=2.52 as=0.157 ps=1.32 w=1 l=0.15
X2 a_109_297# B1 a_193_297# VPB sky130_fd_pr__pfet_01v8_hvt ad=0.26 pd=2.52 as=0.135 ps=1.27 w=1 l=0.15
X3 a_193_297# B2 a_109_297# VPB sky130_fd_pr__pfet_01v8_hvt ad=0.135 pd=1.27 as=0.135 ps=1.27 w=1 l=0.15
X4 X a_27_47# VGND VNB sky130_fd_pr__nfet_01v8 ad=0.169 pd=1.82 as=0.102 ps=0.965 w=0.65 l=0.15
X5 a_205_47# B2 VGND VNB sky130_fd_pr__nfet_01v8 ad=0.0683 pd=0.86 as=0.107 ps=0.98 w=0.65 l=0.15
X6 VPWR A2 a_193_297# VPB sky130_fd_pr__pfet_01v8_hvt ad=0.157 pd=1.32 as=0.165 ps=1.33 w=1 l=0.15
X7 a_193_297# A1 VPWR VPB sky130_fd_pr__pfet_01v8_hvt ad=0.165 pd=1.33 as=0.26 ps=2.52 w=1 l=0.15
X8 a_27_47# B1 a_205_47# VNB sky130_fd_pr__nfet_01v8 ad=0.169 pd=1.82 as=0.0683 ps=0.86 w=0.65 l=0.15
X9 a_109_297# C1 a_27_47# VPB sky130_fd_pr__pfet_01v8_hvt ad=0.135 pd=1.27 as=0.26 ps=2.52 w=1 l=0.15
X10 VGND C1 a_27_47# VNB sky130_fd_pr__nfet_01v8 ad=0.107 pd=0.98 as=0.169 ps=1.82 w=0.65 l=0.15
X11 VGND A2 a_465_47# VNB sky130_fd_pr__nfet_01v8 ad=0.102 pd=0.965 as=0.107 ps=0.98 w=0.65 l=0.15
C0 a_205_47# a_27_47# 0.00762f
C1 C1 A1 1.77e-20
C2 B2 VPB 0.0256f
C3 B2 X 6.77e-20
C4 B2 B1 0.0784f
C5 VPB A1 0.0343f
C6 a_109_297# VPWR 0.15f
C7 X A1 2.77e-19
C8 a_465_47# X 1.56e-19
C9 B2 a_27_47# 0.0959f
C10 C1 VPWR 0.0139f
C11 B1 A1 0.0609f
C12 VGND a_193_297# 0.00438f
C13 VGND A2 0.0168f
C14 a_205_47# VGND 0.00156f
C15 a_193_297# A2 0.00683f
C16 a_27_47# A1 0.0984f
C17 VPB VPWR 0.0799f
C18 a_27_47# a_465_47# 0.013f
C19 X VPWR 0.0897f
C20 C1 a_109_297# 0.00739f
C21 B1 VPWR 0.00982f
C22 a_27_47# VPWR 0.099f
C23 a_109_297# VPB 0.00421f
C24 VGND B2 0.0174f
C25 a_109_297# X 3.99e-19
C26 B2 a_193_297# 0.00126f
C27 C1 VPB 0.0367f
C28 C1 X 5.03e-20
C29 a_109_297# B1 0.00736f
C30 C1 B1 6.46e-19
C31 VGND A1 0.0126f
C32 VGND a_465_47# 0.00257f
C33 a_193_297# A1 0.0109f
C34 a_27_47# a_109_297# 0.0961f
C35 X VPB 0.0113f
C36 A1 A2 0.0692f
C37 C1 a_27_47# 0.0792f
C38 B1 VPB 0.0321f
C39 B1 X 9.58e-20
C40 VGND VPWR 0.0722f
C41 a_193_297# VPWR 0.169f
C42 a_27_47# VPB 0.0512f
C43 a_27_47# X 0.0921f
C44 VPWR A2 0.0209f
C45 a_205_47# VPWR 1.62e-19
C46 a_27_47# B1 0.112f
C47 VGND a_109_297# 0.00284f
C48 a_193_297# a_109_297# 0.0927f
C49 VGND C1 0.0196f
C50 a_465_47# A1 7.06e-19
C51 B2 VPWR 0.00842f
C52 C1 A2 9.03e-21
C53 VGND VPB 0.00844f
C54 a_193_297# VPB 0.00774f
C55 VGND X 0.061f
C56 a_193_297# X 0.00367f
C57 VPWR A1 0.0161f
C58 VPB A2 0.027f
C59 VGND B1 0.0133f
C60 a_465_47# VPWR 5.05e-19
C61 X A2 0.00157f
C62 a_193_297# B1 0.00869f
C63 B2 a_109_297# 0.0133f
C64 C1 B2 0.0726f
C65 VGND a_27_47# 0.395f
C66 a_193_297# a_27_47# 0.144f
C67 a_109_297# A1 1.05e-19
C68 a_27_47# A2 0.153f
C69 VGND VNB 0.437f
C70 X VNB 0.0919f
C71 VPWR VNB 0.364f
C72 A2 VNB 0.0896f
C73 A1 VNB 0.106f
C74 B1 VNB 0.108f
C75 B2 VNB 0.0887f
C76 C1 VNB 0.139f
C77 VPB VNB 0.782f
C78 a_193_297# VNB 0.0011f
C79 a_109_297# VNB 7.11e-19
C80 a_27_47# VNB 0.216f
.ends

.subckt sky130_fd_sc_hd__a32o_1 A1 A2 A3 B1 B2 VGND VNB VPB VPWR X a_256_47# a_584_47#
+ a_93_21# a_250_297# a_346_47#
X0 a_93_21# A1 a_346_47# VNB sky130_fd_pr__nfet_01v8 ad=0.143 pd=1.09 as=0.146 ps=1.1 w=0.65 l=0.15
X1 a_93_21# B1 a_250_297# VPB sky130_fd_pr__pfet_01v8_hvt ad=0.14 pd=1.28 as=0.185 ps=1.37 w=1 l=0.15
X2 a_584_47# B1 a_93_21# VNB sky130_fd_pr__nfet_01v8 ad=0.0683 pd=0.86 as=0.143 ps=1.09 w=0.65 l=0.15
X3 VPWR a_93_21# X VPB sky130_fd_pr__pfet_01v8_hvt ad=0.243 pd=1.49 as=0.33 ps=2.66 w=1 l=0.15
X4 VGND B2 a_584_47# VNB sky130_fd_pr__nfet_01v8 ad=0.172 pd=1.83 as=0.0683 ps=0.86 w=0.65 l=0.15
X5 a_256_47# A3 VGND VNB sky130_fd_pr__nfet_01v8 ad=0.0975 pd=0.95 as=0.167 ps=1.16 w=0.65 l=0.15
X6 a_250_297# B2 a_93_21# VPB sky130_fd_pr__pfet_01v8_hvt ad=0.265 pd=2.53 as=0.14 ps=1.28 w=1 l=0.15
X7 VGND a_93_21# X VNB sky130_fd_pr__nfet_01v8 ad=0.167 pd=1.16 as=0.214 ps=1.96 w=0.65 l=0.15
X8 a_250_297# A3 VPWR VPB sky130_fd_pr__pfet_01v8_hvt ad=0.165 pd=1.33 as=0.243 ps=1.49 w=1 l=0.15
X9 VPWR A2 a_250_297# VPB sky130_fd_pr__pfet_01v8_hvt ad=0.225 pd=1.45 as=0.165 ps=1.33 w=1 l=0.15
X10 a_250_297# A1 VPWR VPB sky130_fd_pr__pfet_01v8_hvt ad=0.185 pd=1.37 as=0.225 ps=1.45 w=1 l=0.15
X11 a_346_47# A2 a_256_47# VNB sky130_fd_pr__nfet_01v8 ad=0.146 pd=1.1 as=0.0975 ps=0.95 w=0.65 l=0.15
C0 B2 A2 1.46e-19
C1 A1 X 6.03e-20
C2 A3 a_256_47# 4.42e-19
C3 a_93_21# VGND 0.251f
C4 a_346_47# VPWR 0.00109f
C5 B2 VPWR 0.0108f
C6 A3 X 2.45e-19
C7 a_93_21# a_250_297# 0.188f
C8 VGND a_256_47# 0.00394f
C9 X VGND 0.06f
C10 a_93_21# A2 0.0747f
C11 a_93_21# VPWR 0.0907f
C12 VPB B1 0.0276f
C13 X a_250_297# 5.42e-19
C14 B2 VPB 0.0355f
C15 A2 a_256_47# 0.00256f
C16 B1 a_346_47# 5.39e-20
C17 B2 B1 0.0823f
C18 VGND a_584_47# 0.00683f
C19 A2 X 1.19e-19
C20 a_256_47# VPWR 9.47e-19
C21 X VPWR 0.0849f
C22 a_250_297# a_584_47# 2.43e-19
C23 A1 VGND 0.0133f
C24 VPB a_93_21# 0.0485f
C25 a_93_21# B1 0.0774f
C26 A3 VGND 0.00974f
C27 a_584_47# VPWR 9.47e-19
C28 a_93_21# a_346_47# 0.0119f
C29 A1 a_250_297# 0.0129f
C30 B2 a_93_21# 0.0147f
C31 A3 a_250_297# 0.00602f
C32 VPB X 0.0108f
C33 B1 a_256_47# 2.07e-20
C34 B1 X 3.83e-20
C35 A2 A1 0.0971f
C36 A3 A2 0.0788f
C37 A1 VPWR 0.016f
C38 a_250_297# VGND 0.0072f
C39 A3 VPWR 0.0158f
C40 A2 VGND 0.0114f
C41 B1 a_584_47# 0.00143f
C42 VGND VPWR 0.076f
C43 a_93_21# a_256_47# 0.0114f
C44 A2 a_250_297# 0.0129f
C45 a_93_21# X 0.0841f
C46 a_250_297# VPWR 0.313f
C47 VPB A1 0.0296f
C48 B1 A1 0.0965f
C49 VPB A3 0.0291f
C50 A3 B1 7.88e-22
C51 A1 a_346_47# 0.00465f
C52 A2 VPWR 0.0133f
C53 B2 A1 3.14e-19
C54 a_93_21# a_584_47# 0.00278f
C55 B2 A3 9.12e-20
C56 VPB VGND 0.00788f
C57 B1 VGND 0.0344f
C58 VGND a_346_47# 0.00514f
C59 B2 VGND 0.0469f
C60 VPB a_250_297# 0.00616f
C61 B1 a_250_297# 0.0125f
C62 a_93_21# A1 0.0641f
C63 A3 a_93_21# 0.124f
C64 B2 a_250_297# 0.0344f
C65 VPB A2 0.0287f
C66 B1 A2 1.44e-20
C67 VPB VPWR 0.0756f
C68 A2 a_346_47# 0.00252f
C69 B1 VPWR 0.01f
C70 VGND VNB 0.465f
C71 VPWR VNB 0.365f
C72 X VNB 0.0937f
C73 B2 VNB 0.14f
C74 B1 VNB 0.101f
C75 A1 VNB 0.0951f
C76 A2 VNB 0.0921f
C77 A3 VNB 0.0929f
C78 VPB VNB 0.782f
C79 a_250_297# VNB 0.0278f
C80 a_93_21# VNB 0.151f
.ends

.subckt sky130_fd_sc_hd__or4_1 A B C D VGND VNB VPB VPWR X a_277_297# a_205_297# a_27_297#
+ a_109_297#
X0 a_27_297# B VGND VNB sky130_fd_pr__nfet_01v8 ad=0.0567 pd=0.69 as=0.0567 ps=0.69 w=0.42 l=0.15
X1 a_27_297# D VGND VNB sky130_fd_pr__nfet_01v8 ad=0.0693 pd=0.75 as=0.109 ps=1.36 w=0.42 l=0.15
X2 a_277_297# B a_205_297# VPB sky130_fd_pr__pfet_01v8_hvt ad=0.0693 pd=0.75 as=0.0441 ps=0.63 w=0.42 l=0.15
X3 VPWR A a_277_297# VPB sky130_fd_pr__pfet_01v8_hvt ad=0.148 pd=1.34 as=0.0693 ps=0.75 w=0.42 l=0.15
X4 X a_27_297# VGND VNB sky130_fd_pr__nfet_01v8 ad=0.176 pd=1.84 as=0.102 ps=0.99 w=0.65 l=0.15
X5 a_205_297# C a_109_297# VPB sky130_fd_pr__pfet_01v8_hvt ad=0.0441 pd=0.63 as=0.0693 ps=0.75 w=0.42 l=0.15
X6 X a_27_297# VPWR VPB sky130_fd_pr__pfet_01v8_hvt ad=0.27 pd=2.54 as=0.148 ps=1.34 w=1 l=0.15
X7 VGND C a_27_297# VNB sky130_fd_pr__nfet_01v8 ad=0.0567 pd=0.69 as=0.0693 ps=0.75 w=0.42 l=0.15
X8 a_109_297# D a_27_297# VPB sky130_fd_pr__pfet_01v8_hvt ad=0.0693 pd=0.75 as=0.109 ps=1.36 w=0.42 l=0.15
X9 VGND A a_27_297# VNB sky130_fd_pr__nfet_01v8 ad=0.102 pd=0.99 as=0.0567 ps=0.69 w=0.42 l=0.15
C0 a_277_297# a_27_297# 0.00876f
C1 D VPWR 0.00503f
C2 B A 0.0639f
C3 X VPB 0.0109f
C4 D C 0.0954f
C5 VPWR A 0.00769f
C6 a_109_297# VGND 7.58e-19
C7 D a_27_297# 0.054f
C8 B VGND 0.0159f
C9 C A 0.028f
C10 D VPB 0.0405f
C11 a_27_297# A 0.163f
C12 VPWR VGND 0.0546f
C13 A VPB 0.033f
C14 a_277_297# X 6.43e-20
C15 C VGND 0.0191f
C16 a_27_297# VGND 0.235f
C17 a_109_297# VPWR 9.23e-19
C18 B VPWR 0.193f
C19 VGND VPB 0.00796f
C20 a_109_297# C 0.00356f
C21 B C 0.0917f
C22 a_27_297# a_109_297# 0.00695f
C23 A X 0.00133f
C24 B a_27_297# 0.159f
C25 a_277_297# A 2.28e-19
C26 C VPWR 0.00723f
C27 B VPB 0.106f
C28 a_205_297# VGND 3.36e-19
C29 a_27_297# VPWR 0.084f
C30 VGND X 0.0354f
C31 VPWR VPB 0.075f
C32 a_277_297# VGND 4.65e-19
C33 D A 2.13e-19
C34 a_27_297# C 0.158f
C35 C VPB 0.0338f
C36 a_27_297# VPB 0.0517f
C37 D VGND 0.0517f
C38 B X 6.42e-19
C39 a_277_297# B 2.29e-19
C40 a_205_297# VPWR 5.16e-19
C41 VGND A 0.016f
C42 VPWR X 0.0878f
C43 a_277_297# VPWR 7.48e-19
C44 a_205_297# C 0.00261f
C45 B D 0.00287f
C46 a_277_297# C 5.54e-19
C47 a_205_297# a_27_297# 0.00412f
C48 a_27_297# X 0.0991f
C49 VGND VNB 0.367f
C50 X VNB 0.0883f
C51 A VNB 0.109f
C52 C VNB 0.105f
C53 D VNB 0.175f
C54 B VNB 0.115f
C55 VPWR VNB 0.29f
C56 VPB VNB 0.605f
C57 a_27_297# VNB 0.163f
.ends

.subckt sky130_ef_sc_hd__decap_12 VGND VPWR VPB VNB
X0 VPWR VGND VPWR VPB sky130_fd_pr__pfet_01v8_hvt ad=0.226 pd=2.26 as=0.452 ps=4.52 w=0.87 l=4.73
X1 VGND VPWR VGND VNB sky130_fd_pr__nfet_01v8 ad=0.143 pd=1.62 as=0.286 ps=3.24 w=0.55 l=4.73
C0 VPB VGND 0.35f
C1 VGND VPWR 1.57f
C2 VPB VPWR 0.137f
C3 VPWR VNB 1.67f
C4 VGND VNB 1.47f
C5 VPB VNB 1.14f
.ends

.subckt sky130_fd_sc_hd__and4b_1 A_N B C D VGND VNB VPB VPWR X a_369_47# a_469_47#
+ a_297_47# a_193_413# a_27_47#
X0 a_297_47# a_27_47# a_193_413# VNB sky130_fd_pr__nfet_01v8 ad=0.0441 pd=0.63 as=0.109 ps=1.36 w=0.42 l=0.15
X1 a_369_47# B a_297_47# VNB sky130_fd_pr__nfet_01v8 ad=0.0735 pd=0.77 as=0.0441 ps=0.63 w=0.42 l=0.15
X2 VPWR D a_193_413# VPB sky130_fd_pr__pfet_01v8_hvt ad=0.141 pd=1.33 as=0.0662 ps=0.735 w=0.42 l=0.15
X3 X a_193_413# VGND VNB sky130_fd_pr__nfet_01v8 ad=0.169 pd=1.82 as=0.103 ps=1 w=0.65 l=0.15
X4 VPWR A_N a_27_47# VPB sky130_fd_pr__pfet_01v8_hvt ad=0.0567 pd=0.69 as=0.109 ps=1.36 w=0.42 l=0.15
X5 VGND D a_469_47# VNB sky130_fd_pr__nfet_01v8 ad=0.103 pd=1 as=0.0609 ps=0.71 w=0.42 l=0.15
X6 X a_193_413# VPWR VPB sky130_fd_pr__pfet_01v8_hvt ad=0.26 pd=2.52 as=0.141 ps=1.33 w=1 l=0.15
X7 VPWR B a_193_413# VPB sky130_fd_pr__pfet_01v8_hvt ad=0.128 pd=1.03 as=0.0987 ps=0.89 w=0.42 l=0.15
X8 a_193_413# C VPWR VPB sky130_fd_pr__pfet_01v8_hvt ad=0.0662 pd=0.735 as=0.128 ps=1.03 w=0.42 l=0.15
X9 a_193_413# a_27_47# VPWR VPB sky130_fd_pr__pfet_01v8_hvt ad=0.0987 pd=0.89 as=0.0567 ps=0.69 w=0.42 l=0.15
X10 a_469_47# C a_369_47# VNB sky130_fd_pr__nfet_01v8 ad=0.0609 pd=0.71 as=0.0735 ps=0.77 w=0.42 l=0.15
X11 VGND A_N a_27_47# VNB sky130_fd_pr__nfet_01v8 ad=0.109 pd=1.36 as=0.109 ps=1.36 w=0.42 l=0.15
C0 VPWR B 0.0186f
C1 C X 0.00479f
C2 a_369_47# VGND 0.00505f
C3 VPWR VGND 0.0727f
C4 a_27_47# a_193_413# 0.125f
C5 C a_469_47# 0.00202f
C6 a_27_47# B 0.0794f
C7 a_193_413# a_297_47# 0.00137f
C8 a_27_47# VGND 0.103f
C9 VPB D 0.0763f
C10 X a_193_413# 0.108f
C11 VPWR VPB 0.0818f
C12 B a_297_47# 0.00353f
C13 VPWR D 0.0186f
C14 a_297_47# VGND 0.00183f
C15 VPWR a_369_47# 6.65e-19
C16 X VGND 0.0588f
C17 a_193_413# a_469_47# 0.00109f
C18 VPB a_27_47# 0.092f
C19 a_469_47# VGND 0.00551f
C20 C a_193_413# 0.0389f
C21 VPWR a_27_47# 0.106f
C22 A_N a_193_413# 0.00151f
C23 VPB X 0.0108f
C24 D X 0.0168f
C25 B C 0.164f
C26 VPWR a_297_47# 2.82e-19
C27 C VGND 0.0395f
C28 VPWR X 0.0586f
C29 A_N VGND 0.0205f
C30 D a_469_47# 0.00183f
C31 VPWR a_469_47# 7.77e-19
C32 B a_193_413# 0.144f
C33 a_193_413# VGND 0.0915f
C34 VPB C 0.0742f
C35 D C 0.183f
C36 VPB A_N 0.0832f
C37 B VGND 0.037f
C38 C a_369_47# 0.00448f
C39 VPWR C 0.0182f
C40 VPWR A_N 0.02f
C41 VPB a_193_413# 0.0644f
C42 X a_469_47# 0.001f
C43 D a_193_413# 0.155f
C44 a_193_413# a_369_47# 0.00181f
C45 A_N a_27_47# 0.237f
C46 VPWR a_193_413# 0.281f
C47 VPB B 0.089f
C48 VPB VGND 0.0123f
C49 D VGND 0.0372f
C50 B a_369_47# 0.00129f
C51 VGND VNB 0.456f
C52 X VNB 0.0934f
C53 VPWR VNB 0.368f
C54 D VNB 0.123f
C55 C VNB 0.108f
C56 B VNB 0.12f
C57 A_N VNB 0.198f
C58 VPB VNB 0.782f
C59 a_193_413# VNB 0.136f
C60 a_27_47# VNB 0.224f
.ends

.subckt sky130_fd_sc_hd__and3b_1 A_N B C VGND VNB VPB VPWR X a_109_93# a_368_53# a_209_311#
+ a_296_53#
X0 a_109_93# A_N VGND VNB sky130_fd_pr__nfet_01v8 ad=0.108 pd=1.36 as=0.109 ps=1.36 w=0.42 l=0.15
X1 X a_209_311# VPWR VPB sky130_fd_pr__pfet_01v8_hvt ad=0.26 pd=2.52 as=0.142 ps=1.34 w=1 l=0.15
X2 a_109_93# A_N VPWR VPB sky130_fd_pr__pfet_01v8_hvt ad=0.109 pd=1.36 as=0.109 ps=1.36 w=0.42 l=0.15
X3 a_296_53# a_109_93# a_209_311# VNB sky130_fd_pr__nfet_01v8 ad=0.0441 pd=0.63 as=0.108 ps=1.36 w=0.42 l=0.15
X4 VPWR C a_209_311# VPB sky130_fd_pr__pfet_01v8_hvt ad=0.142 pd=1.34 as=0.0744 ps=0.815 w=0.42 l=0.15
X5 a_368_53# B a_296_53# VNB sky130_fd_pr__nfet_01v8 ad=0.0536 pd=0.675 as=0.0441 ps=0.63 w=0.42 l=0.15
X6 X a_209_311# VGND VNB sky130_fd_pr__nfet_01v8 ad=0.169 pd=1.82 as=0.122 ps=1.08 w=0.65 l=0.15
X7 a_209_311# B VPWR VPB sky130_fd_pr__pfet_01v8_hvt ad=0.0744 pd=0.815 as=0.0567 ps=0.69 w=0.42 l=0.15
X8 VPWR a_109_93# a_209_311# VPB sky130_fd_pr__pfet_01v8_hvt ad=0.0567 pd=0.69 as=0.108 ps=1.36 w=0.42 l=0.15
X9 VGND C a_368_53# VNB sky130_fd_pr__nfet_01v8 ad=0.122 pd=1.08 as=0.0536 ps=0.675 w=0.42 l=0.15
C0 VPWR X 0.0732f
C1 B A_N 2.03e-19
C2 VGND VPB 0.00909f
C3 B C 0.0671f
C4 A_N X 1.44e-19
C5 B a_109_93# 0.0802f
C6 C X 0.0176f
C7 B VPB 0.0914f
C8 a_296_53# VGND 6.07e-19
C9 X VPB 0.0119f
C10 VPWR a_209_311# 0.155f
C11 a_368_53# VGND 0.0031f
C12 a_209_311# A_N 0.00515f
C13 VPWR A_N 0.0513f
C14 B VGND 0.00796f
C15 a_209_311# C 0.19f
C16 VPWR C 0.005f
C17 a_109_93# a_209_311# 0.168f
C18 X VGND 0.0647f
C19 VPWR a_109_93# 0.0984f
C20 a_209_311# VPB 0.0515f
C21 C A_N 7.6e-19
C22 VPWR VPB 0.104f
C23 a_109_93# A_N 0.117f
C24 A_N VPB 0.111f
C25 B X 0.00119f
C26 a_109_93# C 3.91e-20
C27 C VPB 0.0339f
C28 a_296_53# a_209_311# 0.0049f
C29 VPWR a_296_53# 1.15e-19
C30 a_109_93# VPB 0.0652f
C31 a_209_311# VGND 0.131f
C32 a_368_53# a_209_311# 0.0026f
C33 VPWR VGND 0.0657f
C34 a_368_53# VPWR 4.26e-19
C35 A_N VGND 0.045f
C36 B a_209_311# 0.0609f
C37 C VGND 0.0678f
C38 VPWR B 0.131f
C39 a_368_53# C 0.00415f
C40 a_296_53# a_109_93# 1.84e-19
C41 a_209_311# X 0.0877f
C42 a_109_93# VGND 0.0784f
C43 VGND VNB 0.44f
C44 X VNB 0.0925f
C45 C VNB 0.114f
C46 B VNB 0.101f
C47 VPWR VNB 0.342f
C48 A_N VNB 0.197f
C49 VPB VNB 0.693f
C50 a_209_311# VNB 0.143f
C51 a_109_93# VNB 0.158f
.ends

.subckt sky130_fd_sc_hd__clkbuf_4 A VGND VNB VPB VPWR X a_27_47#
X0 VPWR A a_27_47# VPB sky130_fd_pr__pfet_01v8_hvt ad=0.165 pd=1.33 as=0.265 ps=2.53 w=1 l=0.15
X1 VGND a_27_47# X VNB sky130_fd_pr__nfet_01v8 ad=0.122 pd=1.42 as=0.0588 ps=0.7 w=0.42 l=0.15
X2 VGND a_27_47# X VNB sky130_fd_pr__nfet_01v8 ad=0.0588 pd=0.7 as=0.0588 ps=0.7 w=0.42 l=0.15
X3 X a_27_47# VPWR VPB sky130_fd_pr__pfet_01v8_hvt ad=0.14 pd=1.28 as=0.14 ps=1.28 w=1 l=0.15
X4 X a_27_47# VGND VNB sky130_fd_pr__nfet_01v8 ad=0.0588 pd=0.7 as=0.0588 ps=0.7 w=0.42 l=0.15
X5 VGND A a_27_47# VNB sky130_fd_pr__nfet_01v8 ad=0.0703 pd=0.755 as=0.111 ps=1.37 w=0.42 l=0.15
X6 VPWR a_27_47# X VPB sky130_fd_pr__pfet_01v8_hvt ad=0.3 pd=2.6 as=0.14 ps=1.28 w=1 l=0.15
X7 X a_27_47# VGND VNB sky130_fd_pr__nfet_01v8 ad=0.0588 pd=0.7 as=0.0703 ps=0.755 w=0.42 l=0.15
X8 X a_27_47# VPWR VPB sky130_fd_pr__pfet_01v8_hvt ad=0.14 pd=1.28 as=0.165 ps=1.33 w=1 l=0.15
X9 VPWR a_27_47# X VPB sky130_fd_pr__pfet_01v8_hvt ad=0.14 pd=1.28 as=0.14 ps=1.28 w=1 l=0.15
C0 a_27_47# X 0.328f
C1 X VPB 0.0122f
C2 VGND A 0.0431f
C3 X VPWR 0.317f
C4 VGND a_27_47# 0.148f