* +++++++++++++++++++++++++++++++++++++++++++++++++++++++++ *
* CDL Netlist:                                              *
*                                                           *
* Cell Name  : pre_therm                                    *
* Netlisted  : Fri Dec 13 18:39:23 2024                     *
* Pegasus Version: 23.11-s009 Thu Aug 31 12:45:19 PDT 2023  *
* +++++++++++++++++++++++++++++++++++++++++++++++++++++++++ *
*.LDD
*.DEVTMPLT 0 R(res_generic_m1) met1_res met1(P) met1(N)
*.DEVTMPLT 1 R(res_generic_m2) met2_res met2(P) met2(N)
*.DEVTMPLT 2 R(res_generic_m3) met3_res met3(P) met3(N)
*.DEVTMPLT 3 R(res_generic_m4) met4_res met4(P) met4(N)
*.DEVTMPLT 4 R(res_generic_m5) met5_res met5(P) met5(N)
*.DEVTMPLT 5 R(RES_GENERIC_ND) diff_res np_term(P) np_term(N)
*.DEVTMPLT 6 R(RES_GENERIC_PD) diff_res pp_term(P) pp_term(N)
*.DEVTMPLT 7 MN(nfet_01v8) nfet_01v8_rec nSourceDrain(D) nfet(G) nSourceDrain(S) pwell(B)
*.DEVTMPLT 8 MP(pfet_01v8) pfet_01v8_rec pSourceDrain(D) pfet(G) pSourceDrain(S) nwell(B)

* +++++++++++++++++++++++++++++++++++++++++++++++++++++++++ *
* Sub cell: M3M4_C_CDNS_734111555970                        *
* +++++++++++++++++++++++++++++++++++++++++++++++++++++++++ *
.subckt M3M4_C_CDNS_734111555970 1
** N=1 EP=1 FDC=0
.ends M3M4_C_CDNS_734111555970

* +++++++++++++++++++++++++++++++++++++++++++++++++++++++++ *
* Sub cell: M1M2_C_CDNS_734111555971                        *
* +++++++++++++++++++++++++++++++++++++++++++++++++++++++++ *
.subckt M1M2_C_CDNS_734111555971 1
** N=1 EP=1 FDC=0
.ends M1M2_C_CDNS_734111555971

* +++++++++++++++++++++++++++++++++++++++++++++++++++++++++ *
* Sub cell: M2M3_C_CDNS_734111555972                        *
* +++++++++++++++++++++++++++++++++++++++++++++++++++++++++ *
.subckt M2M3_C_CDNS_734111555972 1
** N=1 EP=1 FDC=0
.ends M2M3_C_CDNS_734111555972

* +++++++++++++++++++++++++++++++++++++++++++++++++++++++++ *
* Sub cell: M1M2_C_CDNS_734111555973                        *
* +++++++++++++++++++++++++++++++++++++++++++++++++++++++++ *
.subckt M1M2_C_CDNS_734111555973 1
** N=1 EP=1 FDC=0
.ends M1M2_C_CDNS_734111555973

* +++++++++++++++++++++++++++++++++++++++++++++++++++++++++ *
* Sub cell: L1M1_C_CDNS_734111555974                        *
* +++++++++++++++++++++++++++++++++++++++++++++++++++++++++ *
.subckt L1M1_C_CDNS_734111555974 1
** N=1 EP=1 FDC=0
.ends L1M1_C_CDNS_734111555974

* +++++++++++++++++++++++++++++++++++++++++++++++++++++++++ *
* Sub cell: L1M1_C_CDNS_734111555975                        *
* +++++++++++++++++++++++++++++++++++++++++++++++++++++++++ *
.subckt L1M1_C_CDNS_734111555975 1
** N=1 EP=1 FDC=0
.ends L1M1_C_CDNS_734111555975

* +++++++++++++++++++++++++++++++++++++++++++++++++++++++++ *
* Sub cell: PYL1CON_C_CDNS_734111555976                     *
* +++++++++++++++++++++++++++++++++++++++++++++++++++++++++ *
.subckt PYL1CON_C_CDNS_734111555976 1 2
** N=2 EP=2 FDC=0
.ends PYL1CON_C_CDNS_734111555976

* +++++++++++++++++++++++++++++++++++++++++++++++++++++++++ *
* Sub cell: nfet_01v8_CDNS_734111555970                     *
* +++++++++++++++++++++++++++++++++++++++++++++++++++++++++ *
.subckt nfet_01v8_CDNS_734111555970 1 2 3
** N=7 EP=3 FDC=1
M0 2 3 1 1 nfet_01v8 L=3.3e-07 W=8e-07 $X=0 $Y=0 $dt=7
.ends nfet_01v8_CDNS_734111555970

* +++++++++++++++++++++++++++++++++++++++++++++++++++++++++ *
* Sub cell: pfet_01v8_CDNS_734111555971                     *
* +++++++++++++++++++++++++++++++++++++++++++++++++++++++++ *
.subckt pfet_01v8_CDNS_734111555971 1 2 3
** N=7 EP=3 FDC=1
M0 2 3 1 1 pfet_01v8 L=1.5e-07 W=7.5e-07 $X=0 $Y=0 $dt=8
.ends pfet_01v8_CDNS_734111555971

* +++++++++++++++++++++++++++++++++++++++++++++++++++++++++ *
* Sub cell: inv12f                                          *
* +++++++++++++++++++++++++++++++++++++++++++++++++++++++++ *
.subckt inv12f VDD VSS A Y 5
** N=9 EP=5 FDC=2
X0 A L1M1_C_CDNS_734111555974 $T=465 2185 0 0 $X=300 $Y=2040
X1 Y L1M1_C_CDNS_734111555975 $T=675 3150 0 0 $X=560 $Y=2805
X2 Y L1M1_C_CDNS_734111555975 $T=810 965 0 0 $X=695 $Y=620
X3 A 6 PYL1CON_C_CDNS_734111555976 $T=465 2185 0 0 $X=280 $Y=2000
X4 VSS Y A nfet_01v8_CDNS_734111555970 $T=340 555 0 0 $X=-65 $Y=405
X5 VDD Y A pfet_01v8_CDNS_734111555971 $T=385 2785 0 0 $X=-60 $Y=2605
.ends inv12f

* +++++++++++++++++++++++++++++++++++++++++++++++++++++++++ *
* Sub cell: L1M1_C_CDNS_734111555977                        *
* +++++++++++++++++++++++++++++++++++++++++++++++++++++++++ *
.subckt L1M1_C_CDNS_734111555977 1
** N=1 EP=1 FDC=0
.ends L1M1_C_CDNS_734111555977

* +++++++++++++++++++++++++++++++++++++++++++++++++++++++++ *
* Sub cell: nfet_01v8_CDNS_734111555972                     *
* +++++++++++++++++++++++++++++++++++++++++++++++++++++++++ *
.subckt nfet_01v8_CDNS_734111555972 1 2 3
** N=5 EP=3 FDC=1
M0 2 3 1 1 nfet_01v8 L=9.5e-07 W=4.2e-07 $X=0 $Y=0 $dt=7
.ends nfet_01v8_CDNS_734111555972

* +++++++++++++++++++++++++++++++++++++++++++++++++++++++++ *
* Sub cell: pfet_01v8_CDNS_734111555973                     *
* +++++++++++++++++++++++++++++++++++++++++++++++++++++++++ *
.subckt pfet_01v8_CDNS_734111555973 1 2 3
** N=7 EP=3 FDC=1
M0 2 3 1 1 pfet_01v8 L=1.5e-07 W=8.5e-07 $X=0 $Y=0 $dt=8
.ends pfet_01v8_CDNS_734111555973

* +++++++++++++++++++++++++++++++++++++++++++++++++++++++++ *
* Sub cell: inv15f                                          *
* +++++++++++++++++++++++++++++++++++++++++++++++++++++++++ *
.subckt inv15f VDD VSS A Y 5
** N=9 EP=5 FDC=2
X0 A L1M1_C_CDNS_734111555974 $T=700 1765 0 0 $X=535 $Y=1620
X1 Y L1M1_C_CDNS_734111555975 $T=910 3070 0 0 $X=795 $Y=2725
X2 A 6 PYL1CON_C_CDNS_734111555976 $T=700 1765 0 0 $X=515 $Y=1580
X3 Y L1M1_C_CDNS_734111555977 $T=1305 910 0 0 $X=1190 $Y=745
X4 VSS Y A nfet_01v8_CDNS_734111555972 $T=215 700 0 0 $X=-190 $Y=550
X5 VDD Y A pfet_01v8_CDNS_734111555973 $T=620 2635 0 0 $X=175 $Y=2455
.ends inv15f

* +++++++++++++++++++++++++++++++++++++++++++++++++++++++++ *
* Sub cell: pfet_01v8_CDNS_734111555974                     *
* +++++++++++++++++++++++++++++++++++++++++++++++++++++++++ *
.subckt pfet_01v8_CDNS_734111555974 1 2 3
** N=7 EP=3 FDC=1
M0 2 2 1 3 pfet_01v8 L=1.5e-07 W=1e-06 $X=0 $Y=0 $dt=8
.ends pfet_01v8_CDNS_734111555974

* +++++++++++++++++++++++++++++++++++++++++++++++++++++++++ *
* Sub cell: pfet_01v8_CDNS_734111555975                     *
* +++++++++++++++++++++++++++++++++++++++++++++++++++++++++ *
.subckt pfet_01v8_CDNS_734111555975 1 2 3 4
** N=6 EP=4 FDC=1
M0 2 3 1 4 pfet_01v8 L=1.05e-06 W=5.5e-07 $X=0 $Y=0 $dt=8
.ends pfet_01v8_CDNS_734111555975

* +++++++++++++++++++++++++++++++++++++++++++++++++++++++++ *
* Sub cell: div_fixed                                       *
* +++++++++++++++++++++++++++++++++++++++++++++++++++++++++ *
.subckt div_fixed A VSS Y 4 5
** N=8 EP=5 FDC=2
X0 VSS L1M1_C_CDNS_734111555974 $T=390 585 0 0 $X=225 $Y=440
X1 Y L1M1_C_CDNS_734111555975 $T=610 1390 0 0 $X=495 $Y=1045
X2 VSS 6 PYL1CON_C_CDNS_734111555976 $T=405 585 0 0 $X=220 $Y=400
X3 Y L1M1_C_CDNS_734111555977 $T=1350 2690 0 90 $X=1185 $Y=2575
X4 Y VSS A pfet_01v8_CDNS_734111555974 $T=470 1900 0 180 $X=-125 $Y=720
X5 A Y VSS A pfet_01v8_CDNS_734111555975 $T=1625 3880 1 270 $X=895 $Y=2385
.ends div_fixed

* +++++++++++++++++++++++++++++++++++++++++++++++++++++++++ *
* Sub cell: nfet_01v8_CDNS_734111555976                     *
* +++++++++++++++++++++++++++++++++++++++++++++++++++++++++ *
.subckt nfet_01v8_CDNS_734111555976 1 2 3
** N=5 EP=3 FDC=1
M0 2 3 1 1 nfet_01v8 L=6.75e-07 W=4.8e-07 $X=0 $Y=0 $dt=7
.ends nfet_01v8_CDNS_734111555976

* +++++++++++++++++++++++++++++++++++++++++++++++++++++++++ *
* Sub cell: pfet_01v8_CDNS_734111555977                     *
* +++++++++++++++++++++++++++++++++++++++++++++++++++++++++ *
.subckt pfet_01v8_CDNS_734111555977 1 2 3
** N=7 EP=3 FDC=1
M0 2 3 1 1 pfet_01v8 L=1.5e-07 W=7.65e-07 $X=0 $Y=0 $dt=8
.ends pfet_01v8_CDNS_734111555977

* +++++++++++++++++++++++++++++++++++++++++++++++++++++++++ *
* Sub cell: inv14f                                          *
* +++++++++++++++++++++++++++++++++++++++++++++++++++++++++ *
.subckt inv14f VDD VSS A Y 5 6
** N=9 EP=6 FDC=2
X0 A L1M1_C_CDNS_734111555974 $T=520 1745 0 0 $X=355 $Y=1600
X1 Y L1M1_C_CDNS_734111555975 $T=735 3095 0 0 $X=620 $Y=2750
X2 A 7 PYL1CON_C_CDNS_734111555976 $T=520 1745 0 0 $X=335 $Y=1560
X3 Y L1M1_C_CDNS_734111555977 $T=1165 915 0 0 $X=1050 $Y=750
X4 VSS Y A nfet_01v8_CDNS_734111555976 $T=350 675 0 0 $X=-55 $Y=525
X5 VDD Y A pfet_01v8_CDNS_734111555977 $T=445 2705 0 0 $X=0 $Y=2525
.ends inv14f

* +++++++++++++++++++++++++++++++++++++++++++++++++++++++++ *
* Sub cell: pfet_01v8_CDNS_734111555978                     *
* +++++++++++++++++++++++++++++++++++++++++++++++++++++++++ *
.subckt pfet_01v8_CDNS_734111555978 1 2 3
** N=7 EP=3 FDC=1
M0 2 3 1 1 pfet_01v8 L=2.6e-07 W=8.5e-07 $X=0 $Y=0 $dt=8
.ends pfet_01v8_CDNS_734111555978

* +++++++++++++++++++++++++++++++++++++++++++++++++++++++++ *
* Sub cell: inv11f                                          *
* +++++++++++++++++++++++++++++++++++++++++++++++++++++++++ *
.subckt inv11f VDD VSS A Y
** N=9 EP=4 FDC=2
X0 A L1M1_C_CDNS_734111555974 $T=480 1765 0 0 $X=315 $Y=1620
X1 Y L1M1_C_CDNS_734111555975 $T=750 3045 0 0 $X=635 $Y=2700
X2 A 5 PYL1CON_C_CDNS_734111555976 $T=480 1765 0 0 $X=295 $Y=1580
X3 Y L1M1_C_CDNS_734111555977 $T=1305 910 0 0 $X=1190 $Y=745
X4 VSS Y A nfet_01v8_CDNS_734111555972 $T=215 700 0 0 $X=-190 $Y=550
X5 VDD Y A pfet_01v8_CDNS_734111555978 $T=350 2610 0 0 $X=-95 $Y=2430
.ends inv11f

* +++++++++++++++++++++++++++++++++++++++++++++++++++++++++ *
* Sub cell: nfet_01v8_CDNS_734111555979                     *
* +++++++++++++++++++++++++++++++++++++++++++++++++++++++++ *
.subckt nfet_01v8_CDNS_734111555979 1 2 3
** N=7 EP=3 FDC=1
M0 2 3 1 1 nfet_01v8 L=1.55e-07 W=9.45e-07 $X=0 $Y=0 $dt=7
.ends nfet_01v8_CDNS_734111555979

* +++++++++++++++++++++++++++++++++++++++++++++++++++++++++ *
* Sub cell: pfet_01v8_CDNS_7341115559710                    *
* +++++++++++++++++++++++++++++++++++++++++++++++++++++++++ *
.subckt pfet_01v8_CDNS_7341115559710 1 2 3
** N=7 EP=3 FDC=1
M0 2 3 1 1 pfet_01v8 L=2.45e-07 W=8.65e-07 $X=0 $Y=0 $dt=8
.ends pfet_01v8_CDNS_7341115559710

* +++++++++++++++++++++++++++++++++++++++++++++++++++++++++ *
* Sub cell: inv10f                                          *
* +++++++++++++++++++++++++++++++++++++++++++++++++++++++++ *
.subckt inv10f VDD VSS A Y
** N=9 EP=4 FDC=2
X0 A L1M1_C_CDNS_734111555974 $T=500 1860 0 0 $X=335 $Y=1715
X1 Y L1M1_C_CDNS_734111555975 $T=720 1035 0 0 $X=605 $Y=690
X2 Y L1M1_C_CDNS_734111555975 $T=770 3090 0 0 $X=655 $Y=2745
X3 A 5 PYL1CON_C_CDNS_734111555976 $T=500 1860 0 0 $X=315 $Y=1675
X4 VSS Y A nfet_01v8_CDNS_734111555979 $T=425 555 0 0 $X=20 $Y=405
X5 VDD Y A pfet_01v8_CDNS_7341115559710 $T=385 2670 0 0 $X=-60 $Y=2490
.ends inv10f

* +++++++++++++++++++++++++++++++++++++++++++++++++++++++++ *
* Sub cell: nfet_01v8_CDNS_7341115559711                    *
* +++++++++++++++++++++++++++++++++++++++++++++++++++++++++ *
.subckt nfet_01v8_CDNS_7341115559711 1 2 3
** N=5 EP=3 FDC=1
M0 2 3 1 1 nfet_01v8 L=9.9e-07 W=4.9e-07 $X=0 $Y=0 $dt=7
.ends nfet_01v8_CDNS_7341115559711

* +++++++++++++++++++++++++++++++++++++++++++++++++++++++++ *
* Sub cell: pfet_01v8_CDNS_7341115559712                    *
* +++++++++++++++++++++++++++++++++++++++++++++++++++++++++ *
.subckt pfet_01v8_CDNS_7341115559712 1 2 3
** N=7 EP=3 FDC=1
M0 2 3 1 1 pfet_01v8 L=1.65e-07 W=8.5e-07 $X=0 $Y=0 $dt=8
.ends pfet_01v8_CDNS_7341115559712

* +++++++++++++++++++++++++++++++++++++++++++++++++++++++++ *
* Sub cell: inv08f                                          *
* +++++++++++++++++++++++++++++++++++++++++++++++++++++++++ *
.subckt inv08f VDD VSS A Y 5 6
** N=9 EP=6 FDC=2
X0 A L1M1_C_CDNS_734111555974 $T=155 1745 0 0 $X=-10 $Y=1600
X1 Y L1M1_C_CDNS_734111555975 $T=665 3170 0 0 $X=550 $Y=2825
X2 A 7 PYL1CON_C_CDNS_734111555976 $T=155 1745 0 0 $X=-30 $Y=1560
X3 Y L1M1_C_CDNS_734111555977 $T=1035 1870 0 90 $X=870 $Y=1755
X4 VSS Y A nfet_01v8_CDNS_7341115559711 $T=1280 740 0 90 $X=640 $Y=335
X5 VDD Y A pfet_01v8_CDNS_7341115559712 $T=360 2755 0 0 $X=-85 $Y=2575
.ends inv08f

* +++++++++++++++++++++++++++++++++++++++++++++++++++++++++ *
* Sub cell: pfet_01v8_CDNS_7341115559713                    *
* +++++++++++++++++++++++++++++++++++++++++++++++++++++++++ *
.subckt pfet_01v8_CDNS_7341115559713 1 2 3
** N=7 EP=3 FDC=1
M0 2 3 1 1 pfet_01v8 L=1.5e-07 W=6.95e-07 $X=0 $Y=0 $dt=8
.ends pfet_01v8_CDNS_7341115559713

* +++++++++++++++++++++++++++++++++++++++++++++++++++++++++ *
* Sub cell: nfet_01v8_CDNS_7341115559714                    *
* +++++++++++++++++++++++++++++++++++++++++++++++++++++++++ *
.subckt nfet_01v8_CDNS_7341115559714 1 2 3
** N=5 EP=3 FDC=1
M0 2 3 1 1 nfet_01v8 L=4e-07 W=6.5e-07 $X=0 $Y=0 $dt=7
.ends nfet_01v8_CDNS_7341115559714

* +++++++++++++++++++++++++++++++++++++++++++++++++++++++++ *
* Sub cell: inv05f                                          *
* +++++++++++++++++++++++++++++++++++++++++++++++++++++++++ *
.subckt inv05f VDD VSS A Y 5 6
** N=9 EP=6 FDC=2
X0 A L1M1_C_CDNS_734111555974 $T=510 1810 0 0 $X=345 $Y=1665
X1 Y L1M1_C_CDNS_734111555975 $T=650 3170 0 0 $X=535 $Y=2825
X2 Y L1M1_C_CDNS_734111555975 $T=855 960 0 0 $X=740 $Y=615
X3 A 7 PYL1CON_C_CDNS_734111555976 $T=510 1810 0 0 $X=325 $Y=1625
X4 VDD Y A pfet_01v8_CDNS_7341115559713 $T=360 2825 0 0 $X=-85 $Y=2645
X5 VSS Y A nfet_01v8_CDNS_7341115559714 $T=315 630 0 0 $X=-90 $Y=480
.ends inv05f

* +++++++++++++++++++++++++++++++++++++++++++++++++++++++++ *
* Sub cell: pfet_01v8_CDNS_7341115559715                    *
* +++++++++++++++++++++++++++++++++++++++++++++++++++++++++ *
.subckt pfet_01v8_CDNS_7341115559715 1 2 3
** N=7 EP=3 FDC=1
M0 2 3 1 1 pfet_01v8 L=2.5e-07 W=8e-07 $X=0 $Y=0 $dt=8
.ends pfet_01v8_CDNS_7341115559715

* +++++++++++++++++++++++++++++++++++++++++++++++++++++++++ *
* Sub cell: nfet_01v8_CDNS_7341115559716                    *
* +++++++++++++++++++++++++++++++++++++++++++++++++++++++++ *
.subckt nfet_01v8_CDNS_7341115559716 1 2 3
** N=5 EP=3 FDC=1
M0 2 3 1 1 nfet_01v8 L=2.85e-07 W=4.2e-07 $X=0 $Y=0 $dt=7
.ends nfet_01v8_CDNS_7341115559716

* +++++++++++++++++++++++++++++++++++++++++++++++++++++++++ *
* Sub cell: inv02f                                          *
* +++++++++++++++++++++++++++++++++++++++++++++++++++++++++ *
.subckt inv02f VDD VSS A Y 5 6
** N=9 EP=6 FDC=2
X0 A L1M1_C_CDNS_734111555974 $T=460 1630 0 0 $X=295 $Y=1485
X1 Y L1M1_C_CDNS_734111555975 $T=725 3245 0 0 $X=610 $Y=2900
X2 A 7 PYL1CON_C_CDNS_734111555976 $T=460 1630 0 0 $X=275 $Y=1445
X3 Y L1M1_C_CDNS_734111555977 $T=740 850 0 0 $X=625 $Y=685
X4 VDD Y A pfet_01v8_CDNS_7341115559715 $T=335 2855 0 0 $X=-110 $Y=2675
X5 VSS Y A nfet_01v8_CDNS_7341115559716 $T=315 640 0 0 $X=-90 $Y=490
.ends inv02f

* +++++++++++++++++++++++++++++++++++++++++++++++++++++++++ *
* Sub cell: nfet_01v8_CDNS_7341115559717                    *
* +++++++++++++++++++++++++++++++++++++++++++++++++++++++++ *
.subckt nfet_01v8_CDNS_7341115559717 1 2 3
** N=7 EP=3 FDC=1
M0 2 3 1 1 nfet_01v8 L=3e-07 W=9.8e-07 $X=0 $Y=0 $dt=7
.ends nfet_01v8_CDNS_7341115559717

* +++++++++++++++++++++++++++++++++++++++++++++++++++++++++ *
* Sub cell: pfet_01v8_CDNS_7341115559718                    *
* +++++++++++++++++++++++++++++++++++++++++++++++++++++++++ *
.subckt pfet_01v8_CDNS_7341115559718 1 2 3
** N=5 EP=3 FDC=1
M0 2 3 1 1 pfet_01v8 L=1.55e-07 W=5.7e-07 $X=0 $Y=0 $dt=8
.ends pfet_01v8_CDNS_7341115559718

* +++++++++++++++++++++++++++++++++++++++++++++++++++++++++ *
* Sub cell: inv07f                                          *
* +++++++++++++++++++++++++++++++++++++++++++++++++++++++++ *
.subckt inv07f VDD VSS A Y 5 6
** N=9 EP=6 FDC=2
X0 A L1M1_C_CDNS_734111555974 $T=435 2320 0 0 $X=270 $Y=2175
X1 Y L1M1_C_CDNS_734111555975 $T=755 940 0 0 $X=640 $Y=595
X2 A 7 PYL1CON_C_CDNS_734111555976 $T=435 2320 0 0 $X=250 $Y=2135
X3 Y L1M1_C_CDNS_734111555977 $T=655 3235 0 0 $X=540 $Y=3070
X4 VSS Y A nfet_01v8_CDNS_7341115559717 $T=315 460 0 0 $X=-90 $Y=310
X5 VDD Y A pfet_01v8_CDNS_7341115559718 $T=360 2950 0 0 $X=-85 $Y=2770
.ends inv07f

* +++++++++++++++++++++++++++++++++++++++++++++++++++++++++ *
* Sub cell: pfet_01v8_CDNS_7341115559719                    *
* +++++++++++++++++++++++++++++++++++++++++++++++++++++++++ *
.subckt pfet_01v8_CDNS_7341115559719 1 2 3
** N=5 EP=3 FDC=1
M0 2 3 1 1 pfet_01v8 L=1.9e-07 W=6.2e-07 $X=0 $Y=0 $dt=8
.ends pfet_01v8_CDNS_7341115559719

* +++++++++++++++++++++++++++++++++++++++++++++++++++++++++ *
* Sub cell: nfet_01v8_CDNS_7341115559720                    *
* +++++++++++++++++++++++++++++++++++++++++++++++++++++++++ *
.subckt nfet_01v8_CDNS_7341115559720 1 2 3
** N=7 EP=3 FDC=1
M0 2 3 1 1 nfet_01v8 L=6e-07 W=7.05e-07 $X=0 $Y=0 $dt=7
.ends nfet_01v8_CDNS_7341115559720

* +++++++++++++++++++++++++++++++++++++++++++++++++++++++++ *
* Sub cell: inv04f                                          *
* +++++++++++++++++++++++++++++++++++++++++++++++++++++++++ *
.subckt inv04f VDD VSS A Y 5 6
** N=9 EP=6 FDC=2
X0 A L1M1_C_CDNS_734111555974 $T=575 1030 0 0 $X=410 $Y=885
X1 Y L1M1_C_CDNS_734111555975 $T=710 2960 0 0 $X=595 $Y=2615
X2 Y L1M1_C_CDNS_734111555975 $T=1025 1070 0 0 $X=910 $Y=725
X3 A 7 PYL1CON_C_CDNS_734111555976 $T=575 1030 0 0 $X=390 $Y=845
X4 VDD Y A pfet_01v8_CDNS_7341115559719 $T=380 2650 0 0 $X=-65 $Y=2470
X5 VSS Y A nfet_01v8_CDNS_7341115559720 $T=280 715 0 0 $X=-125 $Y=565
.ends inv04f

* +++++++++++++++++++++++++++++++++++++++++++++++++++++++++ *
* Sub cell: nfet_01v8_CDNS_7341115559721                    *
* +++++++++++++++++++++++++++++++++++++++++++++++++++++++++ *
.subckt nfet_01v8_CDNS_7341115559721 1 2 3
** N=5 EP=3 FDC=1
M0 2 3 1 1 nfet_01v8 L=5.5e-07 W=5.4e-07 $X=0 $Y=0 $dt=7
.ends nfet_01v8_CDNS_7341115559721

* +++++++++++++++++++++++++++++++++++++++++++++++++++++++++ *
* Sub cell: pfet_01v8_CDNS_7341115559722                    *
* +++++++++++++++++++++++++++++++++++++++++++++++++++++++++ *
.subckt pfet_01v8_CDNS_7341115559722 1 2 3
** N=7 EP=3 FDC=1
M0 2 3 1 1 pfet_01v8 L=1.6e-07 W=8.5e-07 $X=0 $Y=0 $dt=8
.ends pfet_01v8_CDNS_7341115559722

* +++++++++++++++++++++++++++++++++++++++++++++++++++++++++ *
* Sub cell: inv13f                                          *
* +++++++++++++++++++++++++++++++++++++++++++++++++++++++++ *
.subckt inv13f VDD VSS A Y 5 6 7
** N=9 EP=7 FDC=2
X0 A L1M1_C_CDNS_734111555974 $T=465 1790 0 0 $X=300 $Y=1645
X1 Y L1M1_C_CDNS_734111555975 $T=685 3120 0 0 $X=570 $Y=2775
X2 A 8 PYL1CON_C_CDNS_734111555976 $T=465 1790 0 0 $X=280 $Y=1605
X3 Y L1M1_C_CDNS_734111555977 $T=1050 915 0 0 $X=935 $Y=750
X4 VSS Y A nfet_01v8_CDNS_7341115559721 $T=360 720 0 0 $X=-45 $Y=570
X5 VDD Y A pfet_01v8_CDNS_7341115559722 $T=385 2685 0 0 $X=-60 $Y=2505
.ends inv13f

* +++++++++++++++++++++++++++++++++++++++++++++++++++++++++ *
* Sub cell: nfet_01v8_CDNS_7341115559723                    *
* +++++++++++++++++++++++++++++++++++++++++++++++++++++++++ *
.subckt nfet_01v8_CDNS_7341115559723 1 2 3
** N=5 EP=3 FDC=1
M0 2 3 1 1 nfet_01v8 L=1.1e-06 W=4.2e-07 $X=0 $Y=0 $dt=7
.ends nfet_01v8_CDNS_7341115559723

* +++++++++++++++++++++++++++++++++++++++++++++++++++++++++ *
* Sub cell: pfet_01v8_CDNS_7341115559724                    *
* +++++++++++++++++++++++++++++++++++++++++++++++++++++++++ *
.subckt pfet_01v8_CDNS_7341115559724 1 2 3
** N=9 EP=3 FDC=2
M0 2 3 1 1 pfet_01v8 L=1.5e-07 W=7.7e-07 $X=0 $Y=0 $dt=8
M1 1 3 2 1 pfet_01v8 L=1.5e-07 W=7.7e-07 $X=430 $Y=0 $dt=8
.ends pfet_01v8_CDNS_7341115559724

* +++++++++++++++++++++++++++++++++++++++++++++++++++++++++ *
* Sub cell: inv09f                                          *
* +++++++++++++++++++++++++++++++++++++++++++++++++++++++++ *
.subckt inv09f VDD VSS A Y 5
** N=9 EP=5 FDC=3
X0 A L1M1_C_CDNS_734111555974 $T=20 2075 0 0 $X=-145 $Y=1930
X1 A 6 PYL1CON_C_CDNS_734111555976 $T=20 2075 0 0 $X=-165 $Y=1890
X2 Y L1M1_C_CDNS_734111555977 $T=670 1935 0 90 $X=505 $Y=1820
X3 Y L1M1_C_CDNS_734111555977 $T=690 3225 0 0 $X=575 $Y=3060
X4 VSS Y A nfet_01v8_CDNS_7341115559723 $T=905 695 0 90 $X=335 $Y=290
X5 VDD Y A pfet_01v8_CDNS_7341115559724 $T=400 2840 0 0 $X=-45 $Y=2660
.ends inv09f

* +++++++++++++++++++++++++++++++++++++++++++++++++++++++++ *
* Sub cell: nfet_01v8_CDNS_7341115559725                    *
* +++++++++++++++++++++++++++++++++++++++++++++++++++++++++ *
.subckt nfet_01v8_CDNS_7341115559725 1 2 3
** N=7 EP=3 FDC=1
M0 2 3 1 1 nfet_01v8 L=3.2e-07 W=7.25e-07 $X=0 $Y=0 $dt=7
.ends nfet_01v8_CDNS_7341115559725

* +++++++++++++++++++++++++++++++++++++++++++++++++++++++++ *
* Sub cell: pfet_01v8_CDNS_7341115559726                    *
* +++++++++++++++++++++++++++++++++++++++++++++++++++++++++ *
.subckt pfet_01v8_CDNS_7341115559726 1 2 3
** N=5 EP=3 FDC=1
M0 2 3 1 1 pfet_01v8 L=4.35e-07 W=5.6e-07 $X=0 $Y=0 $dt=8
.ends pfet_01v8_CDNS_7341115559726

* +++++++++++++++++++++++++++++++++++++++++++++++++++++++++ *
* Sub cell: inv06f                                          *
* +++++++++++++++++++++++++++++++++++++++++++++++++++++++++ *
.subckt inv06f VDD VSS A Y 5 6 7 8
** N=9 EP=8 FDC=2
X0 A L1M1_C_CDNS_734111555974 $T=555 2320 0 0 $X=390 $Y=2175
X1 Y L1M1_C_CDNS_734111555975 $T=855 1035 0 0 $X=740 $Y=690
X2 A 9 PYL1CON_C_CDNS_734111555976 $T=555 2320 0 0 $X=370 $Y=2135
X3 Y L1M1_C_CDNS_734111555977 $T=910 3285 0 0 $X=795 $Y=3120
X4 VSS Y A nfet_01v8_CDNS_7341115559725 $T=395 685 0 0 $X=-10 $Y=535
X5 VDD Y A pfet_01v8_CDNS_7341115559726 $T=335 3005 0 0 $X=-110 $Y=2825
.ends inv06f

* +++++++++++++++++++++++++++++++++++++++++++++++++++++++++ *
* Sub cell: pfet_01v8_CDNS_7341115559727                    *
* +++++++++++++++++++++++++++++++++++++++++++++++++++++++++ *
.subckt pfet_01v8_CDNS_7341115559727 1 2 3
** N=5 EP=3 FDC=1
M0 2 3 1 1 pfet_01v8 L=3.5e-07 W=6.5e-07 $X=0 $Y=0 $dt=8
.ends pfet_01v8_CDNS_7341115559727

* +++++++++++++++++++++++++++++++++++++++++++++++++++++++++ *
* Sub cell: nfet_01v8_CDNS_7341115559728                    *
* +++++++++++++++++++++++++++++++++++++++++++++++++++++++++ *
.subckt nfet_01v8_CDNS_7341115559728 1 2 3
** N=5 EP=3 FDC=1
M0 2 3 1 1 nfet_01v8 L=4.5e-07 W=6.4e-07 $X=0 $Y=0 $dt=7
.ends nfet_01v8_CDNS_7341115559728

* +++++++++++++++++++++++++++++++++++++++++++++++++++++++++ *
* Sub cell: inv03f                                          *
* +++++++++++++++++++++++++++++++++++++++++++++++++++++++++ *
.subckt inv03f VDD VSS A Y 5
** N=9 EP=5 FDC=2
X0 A L1M1_C_CDNS_734111555974 $T=510 1870 0 0 $X=345 $Y=1725
X1 Y L1M1_C_CDNS_734111555975 $T=825 3370 0 0 $X=710 $Y=3025
X2 Y L1M1_C_CDNS_734111555975 $T=880 960 0 0 $X=765 $Y=615
X3 A 6 PYL1CON_C_CDNS_734111555976 $T=510 1870 0 0 $X=325 $Y=1685
X4 VDD Y A pfet_01v8_CDNS_7341115559727 $T=335 3045 0 0 $X=-110 $Y=2865
X5 VSS Y A nfet_01v8_CDNS_7341115559728 $T=290 640 0 0 $X=-115 $Y=490
.ends inv03f

* +++++++++++++++++++++++++++++++++++++++++++++++++++++++++ *
* Sub cell: nfet_01v8_CDNS_7341115559729                    *
* +++++++++++++++++++++++++++++++++++++++++++++++++++++++++ *
.subckt nfet_01v8_CDNS_7341115559729 1 2 3
** N=5 EP=3 FDC=1
M0 2 3 1 1 nfet_01v8 L=6.5e-07 W=4.45e-07 $X=0 $Y=0 $dt=7
.ends nfet_01v8_CDNS_7341115559729

* +++++++++++++++++++++++++++++++++++++++++++++++++++++++++ *
* Sub cell: pfet_01v8_CDNS_7341115559730                    *
* +++++++++++++++++++++++++++++++++++++++++++++++++++++++++ *
.subckt pfet_01v8_CDNS_7341115559730 1 2 3
** N=7 EP=3 FDC=1
M0 2 3 1 1 pfet_01v8 L=6.3e-07 W=7.9e-07 $X=0 $Y=0 $dt=8
.ends pfet_01v8_CDNS_7341115559730

* +++++++++++++++++++++++++++++++++++++++++++++++++++++++++ *
* Sub cell: inv01f                                          *
* +++++++++++++++++++++++++++++++++++++++++++++++++++++++++ *
.subckt inv01f VDD VSS A Y 5 6
** N=9 EP=6 FDC=2
X0 A L1M1_C_CDNS_734111555974 $T=575 1630 0 0 $X=410 $Y=1485
X1 Y L1M1_C_CDNS_734111555975 $T=1065 3205 0 0 $X=950 $Y=2860
X2 A 7 PYL1CON_C_CDNS_734111555976 $T=575 1630 0 0 $X=390 $Y=1445
X3 Y L1M1_C_CDNS_734111555977 $T=1085 695 0 0 $X=970 $Y=530
X4 VSS Y A nfet_01v8_CDNS_7341115559729 $T=295 475 0 0 $X=-110 $Y=325
X5 VDD Y A pfet_01v8_CDNS_7341115559730 $T=295 2820 0 0 $X=-150 $Y=2640
.ends inv01f

* +++++++++++++++++++++++++++++++++++++++++++++++++++++++++ *
* Sub cell: pfet_01v8_CDNS_7341115559731                    *
* +++++++++++++++++++++++++++++++++++++++++++++++++++++++++ *
.subckt pfet_01v8_CDNS_7341115559731 1 2 3 4
** N=6 EP=4 FDC=1
M0 2 3 1 4 pfet_01v8 L=2.5e-07 W=5.5e-07 $X=0 $Y=0 $dt=8
.ends pfet_01v8_CDNS_7341115559731

* +++++++++++++++++++++++++++++++++++++++++++++++++++++++++ *
* Sub cell: nfet_01v8_CDNS_7341115559732                    *
* +++++++++++++++++++++++++++++++++++++++++++++++++++++++++ *
.subckt nfet_01v8_CDNS_7341115559732 1 2 3 4
** N=6 EP=4 FDC=1
M0 2 3 1 4 nfet_01v8 L=5.5e-07 W=4.2e-07 $X=0 $Y=0 $dt=7
.ends nfet_01v8_CDNS_7341115559732

* +++++++++++++++++++++++++++++++++++++++++++++++++++++++++ *
* Sub cell: preamp1F                                        *
* +++++++++++++++++++++++++++++++++++++++++++++++++++++++++ *
.subckt preamp1F VDD VSS A Y 5
** N=9 EP=5 FDC=2
X0 A L1M1_C_CDNS_734111555974 $T=810 990 0 0 $X=645 $Y=845
X1 Y L1M1_C_CDNS_734111555975 $T=725 1970 0 0 $X=610 $Y=1625
X2 A 6 PYL1CON_C_CDNS_734111555976 $T=810 990 0 0 $X=625 $Y=805
X3 Y VSS A VDD pfet_01v8_CDNS_7341115559731 $T=840 2840 0 90 $X=110 $Y=2395
X4 Y VDD A VSS nfet_01v8_CDNS_7341115559732 $T=610 1275 0 270 $X=460 $Y=320
.ends preamp1F

* +++++++++++++++++++++++++++++++++++++++++++++++++++++++++ *
* Sub cell: L1M1_C_CDNS_734111555978                        *
* +++++++++++++++++++++++++++++++++++++++++++++++++++++++++ *
.subckt L1M1_C_CDNS_734111555978 1
** N=1 EP=1 FDC=0
.ends L1M1_C_CDNS_734111555978

* +++++++++++++++++++++++++++++++++++++++++++++++++++++++++ *
* Sub cell: nfet_01v8_CDNS_7341115559733                    *
* +++++++++++++++++++++++++++++++++++++++++++++++++++++++++ *
.subckt nfet_01v8_CDNS_7341115559733 1 2 3 4
** N=10 EP=4 FDC=1
M0 2 3 1 4 nfet_01v8 L=1.5e-07 W=1.02e-06 $X=0 $Y=0 $dt=7
.ends nfet_01v8_CDNS_7341115559733

* +++++++++++++++++++++++++++++++++++++++++++++++++++++++++ *
* Sub cell: preampF                                         *
* +++++++++++++++++++++++++++++++++++++++++++++++++++++++++ *
.subckt preampF VDD VSS A Y 5 6
** N=9 EP=6 FDC=2
X0 A L1M1_C_CDNS_734111555974 $T=415 2135 0 0 $X=250 $Y=1990
X1 A 7 PYL1CON_C_CDNS_734111555976 $T=415 2135 0 0 $X=230 $Y=1950
X2 Y L1M1_C_CDNS_734111555977 $T=1100 3570 0 90 $X=935 $Y=3455
X3 Y VSS A VDD pfet_01v8_CDNS_734111555975 $T=825 3430 0 270 $X=645 $Y=1935
X4 VDD L1M1_C_CDNS_734111555978 $T=130 995 0 0 $X=15 $Y=470
X5 Y L1M1_C_CDNS_734111555978 $T=570 995 0 0 $X=455 $Y=470
X6 Y VDD A VSS nfet_01v8_CDNS_7341115559733 $T=430 485 1 180 $X=-125 $Y=335
.ends preampF

* +++++++++++++++++++++++++++++++++++++++++++++++++++++++++ *
* Sub cell: pre_therm                                       *
* +++++++++++++++++++++++++++++++++++++++++++++++++++++++++ *
.subckt pre_therm IN VDD VSS Y01 Y02 Y03 Y04 Y05 Y06 Y07
+ Y08 Y09 Y10 Y11 Y12 Y13 Y14 Y15
** N=36 EP=18 FDC=37
X0 VDD M3M4_C_CDNS_734111555970 $T=11600 4140 0 0 $X=11235 $Y=3950
X1 VDD M3M4_C_CDNS_734111555970 $T=11600 12420 0 0 $X=11235 $Y=12230
X2 IN M1M2_C_CDNS_734111555971 $T=630 10715 0 0 $X=500 $Y=10555
X3 IN M1M2_C_CDNS_734111555971 $T=1570 2575 0 90 $X=1410 $Y=2445
X4 IN M1M2_C_CDNS_734111555971 $T=1710 6015 0 90 $X=1550 $Y=5885
X5 Y06 M1M2_C_CDNS_734111555971 $T=2080 7460 0 90 $X=1920 $Y=7330
X6 IN M1M2_C_CDNS_734111555971 $T=3190 5985 0 0 $X=3060 $Y=5825
X7 4 M1M2_C_CDNS_734111555971 $T=3440 2040 0 0 $X=3310 $Y=1880
X8 Y07 M1M2_C_CDNS_734111555971 $T=3580 7525 0 0 $X=3450 $Y=7365
X9 IN M1M2_C_CDNS_734111555971 $T=4540 6510 0 0 $X=4410 $Y=6350
X10 4 M1M2_C_CDNS_734111555971 $T=4845 2040 0 0 $X=4715 $Y=1880
X11 Y02 M1M2_C_CDNS_734111555971 $T=5195 845 0 0 $X=5065 $Y=685
X12 Y08 M1M2_C_CDNS_734111555971 $T=5440 6685 0 0 $X=5310 $Y=6525
X13 8 M1M2_C_CDNS_734111555971 $T=5815 10115 0 0 $X=5685 $Y=9955
X14 Y10 M1M2_C_CDNS_734111555971 $T=6045 11555 0 0 $X=5915 $Y=11395
X15 IN M1M2_C_CDNS_734111555971 $T=6100 5985 0 0 $X=5970 $Y=5825
X16 IN M1M2_C_CDNS_734111555971 $T=6410 1015 0 0 $X=6280 $Y=855
X17 Y09 M1M2_C_CDNS_734111555971 $T=6805 6620 0 0 $X=6675 $Y=6460
X18 8 M1M2_C_CDNS_734111555971 $T=7380 10115 0 0 $X=7250 $Y=9955
X19 Y11 M1M2_C_CDNS_734111555971 $T=7720 11510 0 0 $X=7590 $Y=11350
X20 12 M1M2_C_CDNS_734111555971 $T=8015 1845 0 0 $X=7885 $Y=1685
X21 8 M1M2_C_CDNS_734111555971 $T=8175 6120 0 0 $X=8045 $Y=5960
X22 Y03 M1M2_C_CDNS_734111555971 $T=8345 775 0 0 $X=8215 $Y=615
X23 Y12 M1M2_C_CDNS_734111555971 $T=8790 4890 0 90 $X=8630 $Y=4760
X24 8 M1M2_C_CDNS_734111555971 $T=9350 10070 0 0 $X=9220 $Y=9910
X25 8 M1M2_C_CDNS_734111555971 $T=9555 6465 0 0 $X=9425 $Y=6305
X26 12 M1M2_C_CDNS_734111555971 $T=9600 1055 0 0 $X=9470 $Y=895
X27 Y15 M1M2_C_CDNS_734111555971 $T=9630 11510 0 0 $X=9500 $Y=11350
X28 Y04 M1M2_C_CDNS_734111555971 $T=10120 885 0 0 $X=9990 $Y=725
X29 Y13 M1M2_C_CDNS_734111555971 $T=10155 5590 0 90 $X=9995 $Y=5460
X30 12 M1M2_C_CDNS_734111555971 $T=11040 1845 0 0 $X=10910 $Y=1685
X31 8 M1M2_C_CDNS_734111555971 $T=11080 6480 0 90 $X=10920 $Y=6350
X32 Y05 M1M2_C_CDNS_734111555971 $T=11730 745 0 90 $X=11570 $Y=615
X33 Y14 M1M2_C_CDNS_734111555971 $T=11795 7430 0 90 $X=11635 $Y=7300
X34 VSS M2M3_C_CDNS_734111555972 $T=10595 8280 0 0 $X=10230 $Y=8095
X35 VSS M2M3_C_CDNS_734111555972 $T=10820 0 0 0 $X=10455 $Y=-185
X36 VDD M2M3_C_CDNS_734111555972 $T=11595 4140 0 0 $X=11230 $Y=3955
X37 VDD M2M3_C_CDNS_734111555972 $T=11595 12420 0 0 $X=11230 $Y=12235
X38 VSS M1M2_C_CDNS_734111555973 $T=10590 8280 0 0 $X=10300 $Y=8120
X39 VSS M1M2_C_CDNS_734111555973 $T=10815 0 0 0 $X=10525 $Y=-160
X40 VDD M1M2_C_CDNS_734111555973 $T=11645 4140 0 0 $X=11355 $Y=3980
X41 VDD M1M2_C_CDNS_734111555973 $T=11645 12420 0 0 $X=11355 $Y=12260
X42 VDD VSS 8 Y12 21 inv12f $T=7765 8280 1 0 $X=7585 $Y=3835
X43 VDD VSS 8 Y15 22 inv15f $T=8705 8280 0 0 $X=8515 $Y=8015
X44 IN VSS 8 23 24 div_fixed $T=1180 8280 0 0 $X=1000 $Y=8015
X45 VDD VSS 8 Y14 25 26 inv14f $T=10585 8280 1 0 $X=10405 $Y=3835
X46 VDD VSS 8 Y11 inv11f $T=6955 8280 0 0 $X=6765 $Y=8015