* +++++++++++++++++++++++++++++++++++++++++++++++++++++++++ *
* CDL Netlist:                                              *
*                                                           *
* Cell Name  : preampF_comm_B                               *
* Netlisted  : Thu Dec  5 17:31:40 2024                     *
* Pegasus Version: 23.11-s009 Thu Aug 31 12:45:19 PDT 2023  *
* +++++++++++++++++++++++++++++++++++++++++++++++++++++++++ *
*.LDD
*.DEVTMPLT 0 R(res_generic_m1) met1_res met1(P) met1(N)
*.DEVTMPLT 1 R(res_generic_m2) met2_res met2(P) met2(N)
*.DEVTMPLT 2 R(res_generic_m3) met3_res met3(P) met3(N)
*.DEVTMPLT 3 R(res_generic_m4) met4_res met4(P) met4(N)
*.DEVTMPLT 4 R(res_generic_m5) met5_res met5(P) met5(N)
*.DEVTMPLT 5 R(RES_GENERIC_ND) diff_res np_term(P) np_term(N)
*.DEVTMPLT 6 R(RES_GENERIC_PD) diff_res pp_term(P) pp_term(N)
*.DEVTMPLT 7 MN(nfet_01v8) nfet_01v8_rec nSourceDrain(D) nfet(G) nSourceDrain(S) pwell(B)
*.DEVTMPLT 8 MP(pfet_01v8) pfet_01v8_rec pSourceDrain(D) pfet(G) pSourceDrain(S) nwell(B)

* +++++++++++++++++++++++++++++++++++++++++++++++++++++++++ *
* Sub cell: M1M2_C_CDNS_733416285493                        *
* +++++++++++++++++++++++++++++++++++++++++++++++++++++++++ *
.subckt M1M2_C_CDNS_733416285493 1
** N=1 EP=1 FDC=0
.ends M1M2_C_CDNS_733416285493

* +++++++++++++++++++++++++++++++++++++++++++++++++++++++++ *
* Sub cell: pfet_01v8_CDNS_733416285490                     *
* +++++++++++++++++++++++++++++++++++++++++++++++++++++++++ *
.subckt pfet_01v8_CDNS_733416285490 1 2 3
** N=9 EP=3 FDC=1
M0 1 3 2 2 pfet_01v8 L=1.05e-06 W=5.5e-07 $X=0 $Y=0 $dt=8
.ends pfet_01v8_CDNS_733416285490

* +++++++++++++++++++++++++++++++++++++++++++++++++++++++++ *
* Sub cell: nfet_01v8_CDNS_733416285491                     *
* +++++++++++++++++++++++++++++++++++++++++++++++++++++++++ *
.subckt nfet_01v8_CDNS_733416285491 1 2 3
** N=11 EP=3 FDC=1
M0 1 3 2 2 nfet_01v8 L=1.5e-07 W=1.02e-06 $X=0 $Y=0 $dt=7
.ends nfet_01v8_CDNS_733416285491

* +++++++++++++++++++++++++++++++++++++++++++++++++++++++++ *
* Sub cell: preampF_comm_B                                  *
* +++++++++++++++++++++++++++++++++++++++++++++++++++++++++ *
.subckt preampF_comm_B A VDD VSS Y
** N=7 EP=4 FDC=2
X0 VDD M1M2_C_CDNS_733416285493 $T=80 1225 0 0 $X=-50 $Y=1065
X1 VDD M1M2_C_CDNS_733416285493 $T=80 4100 0 0 $X=-50 $Y=3940
X2 VSS M1M2_C_CDNS_733416285493 $T=490 40 0 0 $X=360 $Y=-120
X3 VSS M1M2_C_CDNS_733416285493 $T=490 2045 0 0 $X=360 $Y=1885
X4 VSS Y A pfet_01v8_CDNS_733416285490 $T=130 3475 0 270 $X=-50 $Y=1980
X5 VDD Y A nfet_01v8_CDNS_733416285491 $T=485 1370 0 180 $X=-70 $Y=200
.ends preampF_comm_B
