*SPEF "ieee 1481-1999"
*DESIGN "ADC"
*DATE "11:11:11 Fri 11 11, 1111"
*VENDOR "OpenRCX"
*PROGRAM "Parallel Extraction"
*VERSION "1.0"
*DESIGN_FLOW "NAME_SCOPE LOCAL" "PIN_CAP NONE"
*DIVIDER /
*DELIMITER :
*BUS_DELIMITER []
*T_UNIT 1 NS
*C_UNIT 1 PF
*R_UNIT 1 OHM
*L_UNIT 1 HENRY

*NAME_MAP
*3 b[0]
*4 b[1]
*5 b[2]
*6 b[3]
*7 p[0]
*8 p[10]
*9 p[11]
*10 p[12]
*11 p[13]
*12 p[14]
*13 p[1]
*14 p[2]
*15 p[3]
*16 p[4]
*17 p[5]
*18 p[6]
*19 p[7]
*20 p[8]
*21 p[9]
*22 _00_
*23 _01_
*24 _02_
*25 _03_
*26 _04_
*27 _05_
*28 _06_
*29 _07_
*30 _08_
*31 _09_
*32 _10_
*33 _11_
*34 _12_
*35 _13_
*36 _14_
*37 _15_
*38 _16_
*39 _17_
*40 _18_
*41 _19_
*42 _20_
*43 _21_
*44 _22_
*45 _23_
*46 _24_
*47 _25_
*48 net1
*49 net10
*50 net11
*51 net12
*52 net13
*53 net14
*54 net15
*55 net16
*56 net17
*57 net18
*58 net19
*59 net2
*60 net3
*61 net4
*62 net5
*63 net6
*64 net7
*65 net8
*66 net9
*67 FILLER_0_0_13
*68 FILLER_0_0_20
*69 FILLER_0_0_27
*70 FILLER_0_0_29
*71 FILLER_0_0_34
*72 FILLER_0_0_41
*73 FILLER_0_0_48
*74 FILLER_0_0_6
*75 FILLER_0_1_12
*76 FILLER_0_1_20
*77 FILLER_0_1_43
*78 FILLER_0_2_13
*79 FILLER_0_2_22
*80 FILLER_0_2_3
*81 FILLER_0_2_42
*82 FILLER_0_2_48
*83 FILLER_0_3_13
*84 FILLER_0_3_24
*85 FILLER_0_3_32
*86 FILLER_0_3_37
*87 FILLER_0_3_41
*88 FILLER_0_3_45
*89 FILLER_0_4_42
*90 FILLER_0_5_3
*91 FILLER_0_5_45
*92 FILLER_0_6_25
*93 FILLER_0_6_36
*94 FILLER_0_6_42
*95 FILLER_0_6_6
*96 FILLER_0_7_15
*97 FILLER_0_7_26
*98 FILLER_0_7_32
*99 FILLER_0_7_44
*100 FILLER_0_7_48
*101 PHY_EDGE_ROW_0_Left_8
*102 PHY_EDGE_ROW_0_Right_0
*103 PHY_EDGE_ROW_1_Left_9
*104 PHY_EDGE_ROW_1_Right_1
*105 PHY_EDGE_ROW_2_Left_10
*106 PHY_EDGE_ROW_2_Right_2
*107 PHY_EDGE_ROW_3_Left_11
*108 PHY_EDGE_ROW_3_Right_3
*109 PHY_EDGE_ROW_4_Left_12
*110 PHY_EDGE_ROW_4_Right_4
*111 PHY_EDGE_ROW_5_Left_13
*112 PHY_EDGE_ROW_5_Right_5
*113 PHY_EDGE_ROW_6_Left_14
*114 PHY_EDGE_ROW_6_Right_6
*115 PHY_EDGE_ROW_7_Left_15
*116 PHY_EDGE_ROW_7_Right_7
*117 TAP_TAPCELL_ROW_0_16
*118 TAP_TAPCELL_ROW_2_17
*119 TAP_TAPCELL_ROW_4_18
*120 TAP_TAPCELL_ROW_6_19
*121 TAP_TAPCELL_ROW_7_20
*122 _26_
*123 _27_
*124 _28_
*125 _29_
*126 _30_
*127 _31_
*128 _32_
*129 _33_
*130 _34_
*131 _35_
*132 _36_
*133 _37_
*134 _38_
*135 _39_
*136 _40_
*137 _41_
*138 _42_
*139 _43_
*140 _44_
*141 _45_
*142 _46_
*143 _47_
*144 _48_
*145 _49_
*146 _50_
*147 _51_
*148 _52_
*149 _53_
*150 _54_
*151 _55_
*152 input1
*153 input10
*154 input11
*155 input12
*156 input13
*157 input14
*158 input15
*159 input2
*160 input3
*161 input4
*162 input5
*163 input6
*164 input7
*165 input8
*166 input9
*167 output16
*168 output17
*169 output18
*170 output19

*PORTS
b[0] O
b[1] O
b[2] O
b[3] O
p[0] I
p[10] I
p[11] I
p[12] I
p[13] I
p[14] I
p[1] I
p[2] I
p[3] I
p[4] I
p[5] I
p[6] I
p[7] I
p[8] I
p[9] I

*D_NET *3 0.000517489
*CONN
*P b[0] O
*I *167:X O *D sky130_fd_sc_hd__clkbuf_4
*CAP
1 b[0] 0.000210746
2 *167:X 0.000210746
3 b[0] b[2] 8.73764e-05
4 b[0] *55:12 8.62073e-06
*RES
1 *167:X b[0] 47.1648 
*END

*D_NET *4 0.000674163
*CONN
*P b[1] O
*I *168:X O *D sky130_fd_sc_hd__clkbuf_4
*CAP
1 b[1] 0.000272782
2 *168:X 0.000272782
3 b[1] *8:13 0.000128598
*RES
1 *168:X b[1] 49.6532 
*END

*D_NET *5 0.000505442
*CONN
*P b[2] O
*I *169:X O *D sky130_fd_sc_hd__clkbuf_4
*CAP
1 b[2] 0.000209033
2 *169:X 0.000209033
3 b[2] *134:B 0
4 b[0] b[2] 8.73764e-05
*RES
1 *169:X b[2] 47.1648 
*END

*D_NET *6 0.00149886
*CONN
*P b[3] O
*I *170:X O *D sky130_fd_sc_hd__clkbuf_4
*CAP
1 b[3] 0.000211644
2 *170:X 0.000277756
3 *6:8 0.0004894
4 b[3] *162:A 7.82365e-05
5 b[3] *9:13 3.25681e-05
6 b[3] *21:15 0
7 *6:8 *9:13 0
8 *6:8 *20:11 0.000171906
9 *6:8 *58:10 2.36844e-05
10 *6:8 *59:12 0.000103657
11 *6:8 *59:29 0.000110014
*RES
1 *170:X *6:8 44.6596 
2 *6:8 b[3] 8.84373 
*END

*D_NET *7 0.00085858
*CONN
*P p[0] I
*I *152:A I *D sky130_fd_sc_hd__clkbuf_1
*CAP
1 p[0] 0.00042929
2 *152:A 0.00042929
3 *152:A *164:A 0
*RES
1 p[0] *152:A 47.4664 
*END

*D_NET *8 0.00109072
*CONN
*P p[10] I
*I *159:A I *D sky130_fd_sc_hd__buf_1
*CAP
1 p[10] 0.000397742
2 *159:A 0
3 *8:13 0.000397742
4 *8:13 *162:A 4.17018e-05
5 *8:13 *168:A 0.00010018
6 *8:13 *59:10 2.4754e-05
7 b[1] *8:13 0.000128598
*RES
1 p[10] *8:13 30.7576 
2 *8:13 *159:A 23 
*END

*D_NET *9 0.000959397
*CONN
*P p[11] I
*I *160:A I *D sky130_fd_sc_hd__buf_1
*CAP
1 p[11] 0.00044713
2 *160:A 0
3 *9:13 0.00044713
4 *9:13 *21:15 3.25681e-05
5 *9:13 *59:12 0
6 b[3] *9:13 3.25681e-05
7 *6:8 *9:13 0
*RES
1 p[11] *9:13 30.7546 
2 *9:13 *160:A 23 
*END

*D_NET *10 0.00152004
*CONN
*P p[12] I
*I *161:A I *D sky130_fd_sc_hd__clkbuf_1
*CAP
1 p[12] 0.000689117
2 *161:A 0
3 *10:13 0.000689117
4 *10:13 *137:A 2.31687e-05
5 *10:13 *137:B 5.50049e-05
6 *10:13 *63:10 6.36284e-05
*RES
1 p[12] *10:13 29.8107 
2 *10:13 *161:A 23 
*END

*D_NET *11 0.0004763
*CONN
*P p[13] I
*I *162:A I *D sky130_fd_sc_hd__dlymetal6s2s_1
*CAP
1 p[13] 0.000175128
2 *162:A 0.000175128
3 *162:A *59:12 6.10551e-06
4 b[3] *162:A 7.82365e-05
5 *8:13 *162:A 4.17018e-05
*RES
1 p[13] *162:A 47.0789 
*END

*D_NET *12 0.00126907
*CONN
*P p[14] I
*I *163:A I *D sky130_fd_sc_hd__buf_1
*CAP
1 p[14] 0.00048039
2 *163:A 0
3 *12:15 0.00048039
4 *12:15 *20:11 4.17018e-05
5 *12:15 *21:15 0.000266585
*RES
1 p[14] *12:15 31.6069 
2 *12:15 *163:A 23 
*END

*D_NET *13 0.00085858
*CONN
*P p[1] I
*I *164:A I *D sky130_fd_sc_hd__buf_1
*CAP
1 p[1] 0.00042929
2 *164:A 0.00042929
3 *164:A *165:A 0
4 *152:A *164:A 0
*RES
1 p[1] *164:A 47.4664 
*END

*D_NET *14 0.000859703
*CONN
*P p[2] I
*I *165:A I *D sky130_fd_sc_hd__buf_1
*CAP
1 p[2] 0.000429852
2 *165:A 0.000429852
3 *165:A *166:A 0
4 *164:A *165:A 0
*RES
1 p[2] *165:A 47.4664 
*END

*D_NET *15 0.000860826
*CONN
*P p[3] I
*I *166:A I *D sky130_fd_sc_hd__clkbuf_1
*CAP
1 p[3] 0.000430413
2 *166:A 0.000430413
3 *166:A *156:A 0
4 *165:A *166:A 0
*RES
1 p[3] *166:A 47.4664 
*END

*D_NET *16 0.0013322
*CONN
*P p[4] I
*I *153:A I *D sky130_fd_sc_hd__buf_1
*CAP
1 p[4] 0.00061601
2 *153:A 0
3 *16:11 0.00061601
4 *16:11 *154:A 0.00010018
*RES
1 p[4] *16:11 27.325 
2 *16:11 *153:A 23 
*END

*D_NET *17 0.00117506
*CONN
*P p[5] I
*I *154:A I *D sky130_fd_sc_hd__buf_1
*CAP
1 p[5] 0.00053744
2 *154:A 0.00053744
3 *154:A *155:A 0
4 *16:11 *154:A 0.00010018
*RES
1 p[5] *154:A 49.6207 
*END

*D_NET *18 0.00085858
*CONN
*P p[6] I
*I *155:A I *D sky130_fd_sc_hd__buf_1
*CAP
1 p[6] 0.00042929
2 *155:A 0.00042929
3 *155:A *156:A 0
4 *154:A *155:A 0
*RES
1 p[6] *155:A 47.4664 
*END

*D_NET *19 0.000944314
*CONN
*P p[7] I
*I *156:A I *D sky130_fd_sc_hd__buf_1
*CAP
1 p[7] 0.000472157
2 *156:A 0.000472157
3 *155:A *156:A 0
4 *166:A *156:A 0
*RES
1 p[7] *156:A 48.4193 
*END

*D_NET *20 0.00151711
*CONN
*P p[8] I
*I *157:A I *D sky130_fd_sc_hd__buf_1
*CAP
1 p[8] 0.000649574
2 *157:A 0
3 *20:11 0.000649574
4 *20:11 *21:15 4.35681e-06
5 *20:11 *58:10 0
6 *6:8 *20:11 0.000171906
7 *12:15 *20:11 4.17018e-05
*RES
1 p[8] *20:11 33.5868 
2 *20:11 *157:A 23 
*END

*D_NET *21 0.00119419
*CONN
*P p[9] I
*I *158:A I *D sky130_fd_sc_hd__buf_1
*CAP
1 p[9] 0.000416986
2 *158:A 0
3 *21:15 0.000416986
4 *21:15 *63:10 5.67058e-05
5 b[3] *21:15 0
6 *9:13 *21:15 3.25681e-05
7 *12:15 *21:15 0.000266585
8 *20:11 *21:15 4.35681e-06
*RES
1 p[9] *21:15 30.1806 
2 *21:15 *158:A 23 
*END

*D_NET *22 0.00187742
*CONN
*I *139:A_N I *D sky130_fd_sc_hd__and4b_1
*I *136:D I *D sky130_fd_sc_hd__nor4_1
*I *124:A I *D sky130_fd_sc_hd__nor2_1
*I *122:X O *D sky130_fd_sc_hd__or3_1
*CAP
1 *139:A_N 0
2 *136:D 0
3 *124:A 6.94134e-05
4 *122:X 0
5 *22:33 0.000160421
6 *22:25 0.000380432
7 *22:4 0.000289424
8 *124:A *151:C1 7.26954e-05
9 *124:A *42:16 7.71845e-05
10 *124:A *42:39 1.14178e-05
11 *22:25 *134:D 8.17328e-05
12 *22:25 *140:B1 0
13 *22:25 *151:C1 9.87985e-06
14 *22:25 *32:16 0.000107232
15 *22:25 *33:14 5.56279e-05
16 *22:25 *37:20 0.000108681
17 *22:25 *40:6 4.18667e-05
18 *22:25 *44:10 0.000181003
19 *22:33 *139:C 4.64674e-05
20 *22:33 *151:A1 2.20803e-05
21 *22:33 *28:88 4.69793e-05
22 *22:33 *33:10 8.17334e-06
23 *22:33 *36:10 5.10686e-05
24 *22:33 *40:6 5.56356e-05
25 *22:33 *59:37 0
*RES
1 *122:X *22:4 23 
2 *22:4 *124:A 24.8229 
3 *22:4 *22:25 35.1993 
4 *22:25 *22:33 33.2314 
5 *22:33 *136:D 23 
6 *22:25 *139:A_N 23 
*END

*D_NET *23 0.00165339
*CONN
*I *124:B I *D sky130_fd_sc_hd__nor2_1
*I *123:X O *D sky130_fd_sc_hd__or4_1
*CAP
1 *124:B 0
2 *123:X 0.000605673
3 *23:14 0.000605673
4 *23:14 *123:B 0
5 *23:14 *128:A 0.000111852
6 *23:14 *128:B 0
7 *23:14 *142:A 6.99589e-05
8 *23:14 *24:14 6.65598e-06
9 *23:14 *42:39 2.91475e-05
10 *23:14 *62:14 0.000128798
11 *23:14 *66:35 9.56378e-05
*RES
1 *123:X *23:14 46.9693 
2 *23:14 *124:B 38 
*END

*D_NET *24 0.0055787
*CONN
*I *144:B I *D sky130_fd_sc_hd__and3_1
*I *141:A1 I *D sky130_fd_sc_hd__a221o_1
*I *148:A1 I *D sky130_fd_sc_hd__a32o_1
*I *145:A2 I *D sky130_fd_sc_hd__a311o_1
*I *124:Y O *D sky130_fd_sc_hd__nor2_1
*CAP
1 *144:B 0
2 *141:A1 0
3 *148:A1 0
4 *145:A2 0
5 *124:Y 0
6 *24:57 0.000352847
7 *24:44 0.000187862
8 *24:23 0.000210984
9 *24:21 0.000743445
10 *24:14 0.000541327
11 *24:4 0.000908803
12 *24:14 *123:B 6.67764e-05
13 *24:14 *128:A 0.000209098
14 *24:14 *142:A 2.46906e-05
15 *24:14 *145:A1 0.000100069
16 *24:14 *151:B1 1.59071e-05
17 *24:14 *151:C1 9.88259e-05
18 *24:14 *37:20 3.00479e-05
19 *24:14 *37:30 2.47815e-05
20 *24:14 *41:10 0.000139982
21 *24:14 *58:10 6.17437e-06
22 *24:14 *65:24 0.000268221
23 *24:21 *122:A 0.000143156
24 *24:21 *148:B1 1.45295e-05
25 *24:21 *151:C1 0.000200304
26 *24:23 *122:A 2.93104e-06
27 *24:44 *122:A 7.11824e-06
28 *24:44 *141:A2 0.000213119
29 *24:44 *141:B1 1.05441e-05
30 *24:44 *148:B1 7.21465e-05
31 *24:44 *151:C1 1.59094e-05
32 *24:44 *28:26 0
33 *24:44 *28:37 1.24376e-05
34 *24:44 *44:10 8.4047e-05
35 *24:57 *149:A 0.000219873
36 *24:57 *28:37 0.000262858
37 *24:57 *28:43 0.000299178
38 *24:57 *43:10 8.4047e-05
39 *23:14 *24:14 6.65598e-06
*RES
1 *124:Y *24:4 23 
2 *24:4 *24:14 41.4343 
3 *24:14 *145:A2 23 
4 *24:4 *24:21 5.38571 
5 *24:21 *24:23 0.497143 
6 *24:23 *148:A1 23 
7 *24:23 *24:44 35.3443 
8 *24:44 *141:A1 23 
9 *24:21 *24:57 37.4986 
10 *24:57 *144:B 23 
*END

*D_NET *25 0.0032157
*CONN
*I *147:A I *D sky130_fd_sc_hd__inv_2
*I *126:C I *D sky130_fd_sc_hd__or4b_1
*I *125:X O *D sky130_fd_sc_hd__or3_1
*CAP
1 *147:A 0
2 *126:C 0
3 *125:X 0
4 *25:31 0.000357649
5 *25:16 0.000624338
6 *25:4 0.000981987
7 *25:16 *126:A 3.7122e-06
8 *25:16 *126:D_N 1.17594e-05
9 *25:16 *128:A 0
10 *25:16 *128:B 9.02871e-05
11 *25:16 *142:A 0.000138607
12 *25:16 *27:14 1.56131e-05
13 *25:16 *48:10 5.29411e-05
14 *25:16 *64:12 0
15 *25:16 *64:21 0
16 *25:31 *125:B 0.000182087
17 *25:31 *131:A1_N 5.3304e-05
18 *25:31 *141:A2 0.000165583
19 *25:31 *142:A 0.000293205
20 *25:31 *31:14 8.22036e-05
21 *25:31 *49:24 0.000162422
*RES
1 *125:X *25:4 23 
2 *25:4 *25:16 38.845 
3 *25:16 *126:C 23 
4 *25:4 *25:31 38.1407 
5 *25:31 *147:A 23 
*END

*D_NET *26 0.00325081
*CONN
*I *131:A1_N I *D sky130_fd_sc_hd__a2bb2o_1
*I *142:A I *D sky130_fd_sc_hd__inv_2
*I *126:X O *D sky130_fd_sc_hd__or4b_1
*CAP
1 *131:A1_N 2.57589e-05
2 *142:A 0.000462675
3 *126:X 0.000217384
4 *26:12 0.000488434
5 *26:10 0.000217384
6 *131:A1_N *31:14 1.21972e-05
7 *142:A *123:B 2.93845e-05
8 *142:A *145:A1 1.59071e-05
9 *142:A *145:C1 0.000274928
10 *142:A *31:14 1.21972e-05
11 *142:A *41:10 0.00033554
12 *142:A *42:39 2.18286e-05
13 *26:10 *129:A_N 5.56279e-05
14 *26:10 *43:18 3.64246e-05
15 *26:10 *49:39 3.33963e-05
16 *26:10 *51:26 0.000141353
17 *26:10 *52:8 3.47781e-05
18 *26:10 *52:19 0.000255846
19 *23:14 *142:A 6.99589e-05
20 *24:14 *142:A 2.46906e-05
21 *25:16 *142:A 0.000138607
22 *25:31 *131:A1_N 5.3304e-05
23 *25:31 *142:A 0.000293205
*RES
1 *126:X *26:10 43.1164 
2 *26:10 *26:12 15 
3 *26:12 *142:A 35.2214 
4 *26:12 *131:A1_N 23.6214 
*END

*D_NET *27 0.00181199
*CONN
*I *131:A2_N I *D sky130_fd_sc_hd__a2bb2o_1
*I *127:X O *D sky130_fd_sc_hd__xor2_1
*CAP
1 *131:A2_N 0
2 *127:X 0.000592424
3 *27:14 0.000592424
4 *27:14 *126:A 5.40337e-05
5 *27:14 *126:D_N 5.56279e-05
6 *27:14 *168:A 0
7 *27:14 *49:24 0.000138718
8 *27:14 *49:39 0.00022443
9 *27:14 *52:19 0.000138718
10 *25:16 *27:14 1.56131e-05
*RES
1 *127:X *27:14 47.5907 
2 *27:14 *131:A2_N 38 
*END

*D_NET *28 0.00882799
*CONN
*I *137:A I *D sky130_fd_sc_hd__and2_1
*I *139:B I *D sky130_fd_sc_hd__and4b_1
*I *134:B I *D sky130_fd_sc_hd__and4_1
*I *129:B I *D sky130_fd_sc_hd__and3b_1
*I *148:A2 I *D sky130_fd_sc_hd__a32o_1
*I *128:X O *D sky130_fd_sc_hd__and4_1
*CAP
1 *137:A 0.00015387
2 *139:B 6.88426e-05
3 *134:B 0.000199438
4 *129:B 0
5 *148:A2 0
6 *128:X 0.000428589
7 *28:88 0.000392669
8 *28:71 0.00099338
9 *28:43 0.000586391
10 *28:37 0.000942084
11 *28:28 0.000156255
12 *28:26 0.00085211
13 *28:18 0.000594961
14 *134:B *134:C 1.05441e-05
15 *134:B *141:A2 0
16 *134:B *149:A 1.37349e-05
17 *134:B *55:12 0
18 *134:B *61:29 4.77164e-06
19 *137:A *137:B 7.75023e-05
20 *137:A *37:10 8.4047e-05
21 *137:A *54:8 0
22 *137:A *63:10 0.000139982
23 *139:B *139:C 0.000138607
24 *139:B *40:6 0.000185371
25 *28:18 *132:D 9.28078e-06
26 *28:18 *42:39 8.61037e-06
27 *28:18 *49:24 0
28 *28:18 *50:46 6.17437e-06
29 *28:18 *62:14 0.00015026
30 *28:26 *141:A2 1.10968e-05
31 *28:26 *148:B1 3.89785e-06
32 *28:26 *42:39 0
33 *28:26 *45:10 0.000102923
34 *28:26 *62:18 4.96811e-06
35 *28:37 *149:B 2.35777e-05
36 *28:37 *149:C 5.67058e-05
37 *28:43 *130:A 3.7122e-06
38 *28:43 *130:B 9.61128e-05
39 *28:43 *149:A 1.12487e-05
40 *28:43 *29:10 5.67058e-05
41 *28:43 *30:10 0
42 *28:43 *47:8 8.85189e-05
43 *28:43 *49:8 4.07715e-05
44 *28:43 *49:12 1.48605e-05
45 *28:43 *49:24 0
46 *28:43 *49:39 4.04598e-06
47 *28:43 *50:23 0.000166522
48 *28:43 *50:38 0.000188256
49 *28:43 *57:8 0
50 *28:71 *122:C 3.61237e-05
51 *28:71 *134:C 4.88553e-05
52 *28:71 *137:B 4.15283e-06
53 *28:71 *32:16 0.000262906
54 *28:71 *40:6 0.000250007
55 *28:71 *45:10 2.05503e-05
56 *28:71 *61:16 0.000182208
57 *28:71 *62:18 2.8314e-06
58 *28:88 *139:C 3.30826e-05
59 *28:88 *33:10 0.000265455
60 *28:88 *37:10 2.8658e-06
61 *28:88 *42:10 2.92911e-06
62 *28:88 *59:37 0
63 b[2] *134:B 0
64 *10:13 *137:A 2.31687e-05
65 *22:33 *28:88 4.69793e-05
66 *24:44 *28:26 0
67 *24:44 *28:37 1.24376e-05
68 *24:57 *28:37 0.000262858
69 *24:57 *28:43 0.000299178
*RES
1 *128:X *28:18 49.813 
2 *28:18 *28:26 10.8482 
3 *28:26 *28:28 15 
4 *28:28 *148:A2 23 
5 *28:28 *28:37 18.48 
6 *28:37 *28:43 27.4286 
7 *28:43 *129:B 23 
8 *28:37 *134:B 41.6664 
9 *28:26 *28:71 38.8242 
10 *28:71 *139:B 25.0507 
11 *28:71 *28:88 49.4121 
12 *28:88 *137:A 41.48 
*END

*D_NET *29 0.000804618
*CONN
*I *144:C I *D sky130_fd_sc_hd__and3_1
*I *131:B1 I *D sky130_fd_sc_hd__a2bb2o_1
*I *129:X O *D sky130_fd_sc_hd__and3b_1
*CAP
1 *144:C 7.80741e-05
2 *131:B1 1.5063e-05
3 *129:X 0.00015555
4 *29:14 0.000110601
5 *29:10 0.000173015
6 *131:B1 *31:14 1.71334e-05
7 *144:C *43:10 1.73399e-05
8 *29:10 *130:B 7.33614e-05
9 *29:10 *30:10 8.62876e-05
10 *29:10 *49:24 7.76364e-06
11 *29:10 *51:26 0
12 *29:14 *31:14 1.37232e-05
13 *28:43 *29:10 5.67058e-05
*RES
1 *129:X *29:10 41.2314 
2 *29:10 *29:14 15.4971 
3 *29:14 *131:B1 23.4971 
4 *29:14 *144:C 24.4086 
*END

*D_NET *30 0.000419849
*CONN
*I *131:B2 I *D sky130_fd_sc_hd__a2bb2o_1
*I *130:Y O *D sky130_fd_sc_hd__xnor2_1
*CAP
1 *131:B2 0
2 *130:Y 0.000111984
3 *30:10 0.000111984
4 *30:10 *49:12 5.50049e-05
5 *30:10 *49:24 5.45887e-05
6 *28:43 *30:10 0
7 *29:10 *30:10 8.62876e-05
*RES
1 *130:Y *30:10 40.175 
2 *30:10 *131:B2 38 
*END

*D_NET *31 0.00209834
*CONN
*I *141:A2 I *D sky130_fd_sc_hd__a221o_1
*I *131:X O *D sky130_fd_sc_hd__a2bb2o_1
*CAP
1 *141:A2 0.000325391
2 *131:X 0.000314824
3 *31:14 0.000640215
4 *141:A2 *134:D 1.46586e-05
5 *141:A2 *141:B2 1.46586e-05
6 *141:A2 *148:B1 4.2781e-06
7 *141:A2 *149:A 8.02461e-05
8 *141:A2 *35:10 3.41998e-06
9 *141:A2 *43:10 2.54046e-05
10 *141:A2 *45:10 0.000135557
11 *31:14 *145:C1 1.24376e-05
12 *131:A1_N *31:14 1.21972e-05
13 *131:B1 *31:14 1.71334e-05
14 *134:B *141:A2 0
15 *142:A *31:14 1.21972e-05
16 *24:44 *141:A2 0.000213119
17 *25:31 *141:A2 0.000165583
18 *25:31 *31:14 8.22036e-05
19 *28:26 *141:A2 1.10968e-05
20 *29:14 *31:14 1.37232e-05
*RES
1 *131:X *31:14 43.1993 
2 *31:14 *141:A2 46.063 
*END

*D_NET *32 0.0052788
*CONN
*I *137:B I *D sky130_fd_sc_hd__and2_1
*I *134:C I *D sky130_fd_sc_hd__and4_1
*I *139:C I *D sky130_fd_sc_hd__and4b_1
*I *132:X O *D sky130_fd_sc_hd__and4_1
*CAP
1 *137:B 0.000291516
2 *134:C 0.000835879
3 *139:C 0.00046884
4 *132:X 0.000381079
5 *32:18 0.00130472
6 *32:16 0.000672595
7 *134:C *55:12 5.58152e-06
8 *134:C *61:29 2.82419e-06
9 *137:B *37:10 0.000299169
10 *137:B *37:20 4.68153e-05
11 *137:B *61:16 7.03207e-06
12 *139:C *33:10 4.15283e-06
13 *139:C *40:6 2.32004e-05
14 *139:C *66:35 0
15 *32:16 *37:20 4.22658e-05
16 *32:16 *42:39 0.000108776
17 *32:16 *62:18 0
18 *134:B *134:C 1.05441e-05
19 *137:A *137:B 7.75023e-05
20 *139:B *139:C 0.000138607
21 *10:13 *137:B 5.50049e-05
22 *22:25 *32:16 0.000107232
23 *22:33 *139:C 4.64674e-05
24 *28:71 *134:C 4.88553e-05
25 *28:71 *137:B 4.15283e-06
26 *28:71 *32:16 0.000262906
27 *28:88 *139:C 3.30826e-05
*RES
1 *132:X *32:16 45.2604 
2 *32:16 *32:18 8 
3 *32:18 *139:C 49.2093 
4 *32:18 *134:C 47.8368 
5 *32:16 *137:B 44.2246 
*END

*D_NET *33 0.00342755
*CONN
*I *134:D I *D sky130_fd_sc_hd__and4_1
*I *146:D I *D sky130_fd_sc_hd__and4bb_1
*I *133:X O *D sky130_fd_sc_hd__and4_1
*CAP
1 *134:D 0.000372966
2 *146:D 0
3 *133:X 0.000285805
4 *33:14 0.000392402
5 *33:10 0.000305242
6 *134:D *141:B2 0.000158872
7 *134:D *146:A_N 0.000140927
8 *134:D *34:14 0.00012522
9 *134:D *40:6 0.000350075
10 *134:D *44:10 0.00011709
11 *134:D *55:12 0.000126847
12 *33:10 *136:B 9.75779e-05
13 *33:10 *136:C 0.000141677
14 *33:10 *143:B1 0.000126583
15 *33:10 *37:10 4.78036e-05
16 *33:10 *42:10 0.000155359
17 *33:14 *40:6 5.3304e-05
18 *139:C *33:10 4.15283e-06
19 *141:A2 *134:D 1.46586e-05
20 *22:25 *134:D 8.17328e-05
21 *22:25 *33:14 5.56279e-05
22 *22:33 *33:10 8.17334e-06
23 *28:88 *33:10 0.000265455
*RES
1 *133:X *33:10 45.6229 
2 *33:10 *33:14 15.6214 
3 *33:14 *146:D 23 
4 *33:14 *134:D 33.1707 
*END

*D_NET *34 0.00315327
*CONN
*I *143:A2 I *D sky130_fd_sc_hd__a21o_1
*I *141:B1 I *D sky130_fd_sc_hd__a221o_1
*I *148:B1 I *D sky130_fd_sc_hd__a32o_1
*I *134:X O *D sky130_fd_sc_hd__and4_1
*CAP
1 *143:A2 0.000268921
2 *141:B1 4.63207e-05
3 *148:B1 0.000188868
4 *134:X 0.000379063
5 *34:16 0.000266518
6 *34:14 0.000679313
7 *143:A2 *135:A 0.000108309
8 *143:A2 *143:A1 0.000310754
9 *143:A2 *62:55 7.48331e-05
10 *143:A2 *63:12 1.12487e-05
11 *148:B1 *151:C1 1.03631e-05
12 *148:B1 *44:10 8.4047e-05
13 *148:B1 *45:10 3.41998e-06
14 *148:B1 *62:18 2.75733e-06
15 *148:B1 *62:42 0.000126538
16 *148:B1 *62:55 7.29119e-05
17 *34:14 *141:B2 0.00022192
18 *34:14 *55:12 2.65879e-05
19 *34:16 *35:10 0
20 *34:16 *62:55 3.99618e-05
21 *134:D *34:14 0.00012522
22 *141:A2 *148:B1 4.2781e-06
23 *24:21 *148:B1 1.45295e-05
24 *24:44 *141:B1 1.05441e-05
25 *24:44 *148:B1 7.21465e-05
26 *28:26 *148:B1 3.89785e-06
*RES
1 *134:X *34:14 45.0014 
2 *34:14 *34:16 0.673214 
3 *34:16 *148:B1 42.3914 
4 *34:16 *141:B1 38.9425 
5 *34:14 *143:A2 44.0071 
*END

*D_NET *35 0.00126661
*CONN
*I *141:B2 I *D sky130_fd_sc_hd__a221o_1
*I *135:Y O *D sky130_fd_sc_hd__xnor2_1
*CAP
1 *141:B2 0.000126841
2 *135:Y 0.000242148
3 *35:10 0.000368989
4 *35:10 *61:29 0.000129757
5 *134:D *141:B2 0.000158872
6 *141:A2 *141:B2 1.46586e-05
7 *141:A2 *35:10 3.41998e-06
8 *34:14 *141:B2 0.00022192
9 *34:16 *35:10 0
*RES
1 *135:Y *35:10 41.0036 
2 *35:10 *141:B2 41.9979 
*END

*D_NET *36 0.00165197
*CONN
*I *151:A1 I *D sky130_fd_sc_hd__a211o_1
*I *140:A2 I *D sky130_fd_sc_hd__a32o_1
*I *136:Y O *D sky130_fd_sc_hd__nor4_1
*CAP
1 *151:A1 0.00019906
2 *140:A2 0.00021748
3 *136:Y 0.000137772
4 *36:10 0.000554312
5 *140:A2 *140:A1 9.67842e-05
6 *140:A2 *140:B1 6.77779e-05
7 *140:A2 *39:8 5.50049e-05
8 *140:A2 *40:6 0.000139357
9 *151:A1 *123:B 0
10 *151:A1 *140:B1 2.59973e-05
11 *151:A1 *38:8 0
12 *36:10 *140:B1 6.7177e-06
13 *36:10 *143:B1 7.85548e-05
14 *22:33 *151:A1 2.20803e-05
15 *22:33 *36:10 5.10686e-05
*RES
1 *136:Y *36:10 40.3511 
2 *36:10 *140:A2 42.4225 
3 *36:10 *151:A1 41.4904 
*END

*D_NET *37 0.0035119
*CONN
*I *146:C I *D sky130_fd_sc_hd__and4bb_1
*I *151:A2 I *D sky130_fd_sc_hd__a211o_1
*I *140:A3 I *D sky130_fd_sc_hd__a32o_1
*I *137:X O *D sky130_fd_sc_hd__and2_1
*CAP
1 *146:C 0
2 *151:A2 3.06729e-05
3 *140:A3 0
4 *137:X 0.000208431
5 *37:30 0.000233871
6 *37:20 0.000647313
7 *37:10 0.000591199
8 *151:A2 *151:B1 1.37232e-05
9 *151:A2 *42:16 0
10 *37:10 *42:10 7.48331e-05
11 *37:10 *63:10 9.6208e-05
12 *37:20 *151:B1 0.000146822
13 *37:20 *42:10 0.000207516
14 *37:20 *42:16 1.3523e-05
15 *37:20 *42:39 7.5106e-05
16 *37:30 *138:B 5.3304e-05
17 *37:30 *53:21 0.000168754
18 *37:30 *58:10 9.76261e-05
19 *37:30 *60:26 0.000166522
20 *137:A *37:10 8.4047e-05
21 *137:B *37:10 0.000299169
22 *137:B *37:20 4.68153e-05
23 *22:25 *37:20 0.000108681
24 *24:14 *37:20 3.00479e-05
25 *24:14 *37:30 2.47815e-05
26 *28:88 *37:10 2.8658e-06
27 *32:16 *37:20 4.22658e-05
28 *33:10 *37:10 4.78036e-05
*RES
1 *137:X *37:10 43.1164 
2 *37:10 *37:20 22.9129 
3 *37:20 *37:30 35.7586 
4 *37:30 *140:A3 23 
5 *37:20 *151:A2 23.8493 
6 *37:10 *146:C 38 
*END

*D_NET *38 0.000576055
*CONN
*I *139:D I *D sky130_fd_sc_hd__and4b_1
*I *138:X O *D sky130_fd_sc_hd__and3b_1
*CAP
1 *139:D 3.72106e-05
2 *138:X 7.68762e-05
3 *38:8 0.000114087
4 *139:D *140:B1 5.3304e-05
5 *139:D *40:6 8.40633e-05
6 *38:8 *123:B 1.01436e-05
7 *38:8 *140:B1 6.16439e-05
8 *38:8 *54:36 0.000138727
9 *151:A1 *38:8 0
*RES
1 *138:X *38:8 39.9057 
2 *38:8 *139:D 38.9684 
*END

*D_NET *39 0.00222212
*CONN
*I *143:B1 I *D sky130_fd_sc_hd__a21o_1
*I *140:B1 I *D sky130_fd_sc_hd__a32o_1
*I *139:X O *D sky130_fd_sc_hd__and4b_1
*CAP
1 *143:B1 0.000288392
2 *140:B1 0.000426149
3 *139:X 4.25104e-05
4 *39:8 0.000757051
5 *140:B1 *140:A1 2.02872e-05
6 *140:B1 *140:B2 1.19077e-05
7 *140:B1 *40:6 2.02872e-05
8 *140:B1 *54:36 3.72639e-05
9 *143:B1 *133:B 0
10 *143:B1 *136:B 1.98161e-05
11 *143:B1 *42:10 4.96207e-05
12 *143:B1 *54:23 3.29581e-05
13 *143:B1 *54:36 3.01458e-05
14 *143:B1 *59:37 1.01436e-05
15 *139:D *140:B1 5.3304e-05
16 *140:A2 *140:B1 6.77779e-05
17 *140:A2 *39:8 5.50049e-05
18 *151:A1 *140:B1 2.59973e-05
19 *22:25 *140:B1 0
20 *33:10 *143:B1 0.000126583
21 *36:10 *140:B1 6.7177e-06
22 *36:10 *143:B1 7.85548e-05
23 *38:8 *140:B1 6.16439e-05
*RES
1 *139:X *39:8 38.6214 
2 *39:8 *140:B1 45.0118 
3 *39:8 *143:B1 44.4421 
*END

*D_NET *40 0.00193552
*CONN
*I *141:C1 I *D sky130_fd_sc_hd__a221o_1
*I *140:X O *D sky130_fd_sc_hd__a32o_1
*CAP
1 *141:C1 0
2 *140:X 0.000315962
3 *40:6 0.000315962
4 *40:6 *146:B_N 0.000100429
5 *134:D *40:6 0.000350075
6 *139:B *40:6 0.000185371
7 *139:C *40:6 2.32004e-05
8 *139:D *40:6 8.40633e-05
9 *140:A2 *40:6 0.000139357
10 *140:B1 *40:6 2.02872e-05
11 *22:25 *40:6 4.18667e-05
12 *22:33 *40:6 5.56356e-05
13 *28:71 *40:6 0.000250007
14 *33:14 *40:6 5.3304e-05
*RES
1 *140:X *40:6 32.1971 
2 *40:6 *141:C1 23 
*END

*D_NET *41 0.00112733
*CONN
*I *145:A3 I *D sky130_fd_sc_hd__a311o_1
*I *142:Y O *D sky130_fd_sc_hd__inv_2
*CAP
1 *145:A3 0
2 *142:Y 0.000325905
3 *41:10 0.000325905
4 *41:10 *145:A1 0
5 *142:A *41:10 0.00033554
6 *24:14 *41:10 0.000139982
*RES
1 *142:Y *41:10 29.38 
2 *41:10 *145:A3 23 
*END

*D_NET *42 0.00357867
*CONN
*I *145:B1 I *D sky130_fd_sc_hd__a311o_1
*I *151:B1 I *D sky130_fd_sc_hd__a211o_1
*I *143:X O *D sky130_fd_sc_hd__a21o_1
*CAP
1 *145:B1 0
2 *151:B1 4.31408e-05
3 *143:X 0.000312269
4 *42:39 0.000526779
5 *42:16 0.000615209
6 *42:10 0.000357558
7 *151:B1 *151:C1 6.37371e-05
8 *42:16 *151:C1 1.71983e-05
9 *42:39 *128:B 0.000289442
10 *42:39 *132:D 0
11 *42:39 *145:A1 5.47983e-06
12 *42:39 *145:C1 9.64943e-05
13 *42:39 *151:C1 5.47983e-06
14 *42:39 *66:35 0.000233579
15 *124:A *42:16 7.71845e-05
16 *124:A *42:39 1.14178e-05
17 *142:A *42:39 2.18286e-05
18 *143:B1 *42:10 4.96207e-05
19 *151:A2 *151:B1 1.37232e-05
20 *151:A2 *42:16 0
21 *23:14 *42:39 2.91475e-05
22 *24:14 *151:B1 1.59071e-05
23 *28:18 *42:39 8.61037e-06
24 *28:26 *42:39 0
25 *28:88 *42:10 2.92911e-06
26 *32:16 *42:39 0.000108776
27 *33:10 *42:10 0.000155359
28 *37:10 *42:10 7.48331e-05
29 *37:20 *151:B1 0.000146822
30 *37:20 *42:10 0.000207516
31 *37:20 *42:16 1.3523e-05
32 *37:20 *42:39 7.5106e-05
*RES
1 *143:X *42:10 43.5929 
2 *42:10 *42:16 16.4707 
3 *42:16 *151:B1 25.0714 
4 *42:16 *42:39 39.7979 
5 *42:39 *145:B1 23 
*END

*D_NET *43 0.0030982
*CONN
*I *149:A I *D sky130_fd_sc_hd__or3_1
*I *145:C1 I *D sky130_fd_sc_hd__a311o_1
*I *144:X O *D sky130_fd_sc_hd__and3_1
*CAP
1 *149:A 0.000124175
2 *145:C1 0.000212634
3 *144:X 9.38198e-05
4 *43:18 0.000635346
5 *43:10 0.000640707
6 *43:18 *132:C 3.11916e-05
7 *43:18 *132:D 7.10803e-05
8 *43:18 *50:38 0.0002939
9 *43:18 *50:46 9.67842e-05
10 *43:18 *51:26 5.58975e-06
11 *43:18 *52:19 2.07944e-05
12 *134:B *149:A 1.37349e-05
13 *141:A2 *149:A 8.02461e-05
14 *141:A2 *43:10 2.54046e-05
15 *142:A *145:C1 0.000274928
16 *144:C *43:10 1.73399e-05
17 *24:57 *149:A 0.000219873
18 *24:57 *43:10 8.4047e-05
19 *26:10 *43:18 3.64246e-05
20 *28:43 *149:A 1.12487e-05
21 *31:14 *145:C1 1.24376e-05
22 *42:39 *145:C1 9.64943e-05
*RES
1 *144:X *43:10 39.8229 
2 *43:10 *43:18 36.6907 
3 *43:18 *145:C1 43.0957 
4 *43:10 *149:A 41.6664 
*END

*D_NET *44 0.00358966
*CONN
*I *149:B I *D sky130_fd_sc_hd__or3_1
*I *151:C1 I *D sky130_fd_sc_hd__a211o_1
*I *146:X O *D sky130_fd_sc_hd__and4bb_1
*CAP
1 *149:B 0.000161719
2 *151:C1 0.000452298
3 *146:X 0.000544069
4 *44:12 0.000614017
5 *44:10 0.000544069
6 *149:B *149:C 2.30292e-05
7 *151:C1 *122:A 7.22439e-05
8 *151:C1 *122:C 5.31349e-05
9 *44:10 *146:A_N 0.000140927
10 *124:A *151:C1 7.26954e-05
11 *134:D *44:10 0.00011709
12 *148:B1 *151:C1 1.03631e-05
13 *148:B1 *44:10 8.4047e-05
14 *151:B1 *151:C1 6.37371e-05
15 *22:25 *151:C1 9.87985e-06
16 *22:25 *44:10 0.000181003
17 *24:14 *151:C1 9.88259e-05
18 *24:21 *151:C1 0.000200304
19 *24:44 *151:C1 1.59094e-05
20 *24:44 *44:10 8.4047e-05
21 *28:37 *149:B 2.35777e-05
22 *42:16 *151:C1 1.71983e-05
23 *42:39 *151:C1 5.47983e-06
*RES
1 *146:X *44:10 45.54 
2 *44:10 *44:12 15 
3 *44:12 *151:C1 32.3007 
4 *44:12 *149:B 25.0507 
*END

*D_NET *45 0.000546029
*CONN
*I *148:A3 I *D sky130_fd_sc_hd__a32o_1
*I *147:Y O *D sky130_fd_sc_hd__inv_2
*CAP
1 *148:A3 0
2 *147:Y 0.000136528
3 *45:10 0.000136528
4 *45:10 *50:38 1.05235e-05
5 *141:A2 *45:10 0.000135557
6 *148:B1 *45:10 3.41998e-06
7 *28:26 *45:10 0.000102923
8 *28:71 *45:10 2.05503e-05
*RES
1 *147:Y *45:10 40.5271 
2 *45:10 *148:A3 38 
*END

*D_NET *46 9.87992e-05
*CONN
*I *149:C I *D sky130_fd_sc_hd__or3_1
*I *148:X O *D sky130_fd_sc_hd__a32o_1
*CAP
1 *149:C 9.53207e-06
2 *148:X 9.53207e-06
3 *149:B *149:C 2.30292e-05
4 *28:37 *149:C 5.67058e-05
*RES
1 *148:X *149:C 46.6214 
*END

*D_NET *47 0.00036953
*CONN
*I *150:A I *D sky130_fd_sc_hd__clkbuf_1
*I *149:X O *D sky130_fd_sc_hd__or3_1
*CAP
1 *150:A 7.35173e-05
2 *149:X 4.92713e-05
3 *47:8 0.000122789
4 *150:A *50:38 7.53384e-06
5 *47:8 *57:8 2.79004e-05
6 *28:43 *47:8 8.85189e-05
*RES
1 *149:X *47:8 39.2014 
2 *47:8 *150:A 39.4707 
*END

*D_NET *48 0.00290769
*CONN
*I *128:B I *D sky130_fd_sc_hd__and4_1
*I *126:D_N I *D sky130_fd_sc_hd__or4b_1
*I *152:X O *D sky130_fd_sc_hd__clkbuf_1
*CAP
1 *128:B 0.000325098
2 *126:D_N 2.27375e-05
3 *152:X 0.000584847
4 *48:10 0.000932682
5 *128:B *128:A 0
6 *128:B *62:14 2.02872e-05
7 *128:B *65:24 9.64943e-05
8 *128:B *66:10 4.6318e-06
9 *128:B *66:35 0.000177648
10 *48:10 *65:10 0.000146822
11 *48:10 *66:10 9.63815e-05
12 *23:14 *128:B 0
13 *25:16 *126:D_N 1.17594e-05
14 *25:16 *128:B 9.02871e-05
15 *25:16 *48:10 5.29411e-05
16 *27:14 *126:D_N 5.56279e-05
17 *42:39 *128:B 0.000289442
*RES
1 *152:X *48:10 49.2064 
2 *48:10 *126:D_N 38.6214 
3 *48:10 *128:B 45.3536 
*END

*D_NET *49 0.00357981
*CONN
*I *129:C I *D sky130_fd_sc_hd__and3b_1
*I *126:B I *D sky130_fd_sc_hd__or4b_1
*I *132:B I *D sky130_fd_sc_hd__and4_1
*I *153:X O *D sky130_fd_sc_hd__buf_1
*CAP
1 *129:C 0
2 *126:B 0
3 *132:B 0
4 *153:X 0.000113302
5 *49:39 0.000220523
6 *49:24 0.000410259
7 *49:12 0.000862832
8 *49:8 0.000345353
9 *49:8 *50:8 5.61311e-05
10 *49:8 *50:23 3.47781e-05
11 *49:12 *130:A 5.3304e-05
12 *49:12 *130:B 0.000123944
13 *49:12 *50:12 5.3304e-05
14 *49:24 *132:C 0.000136702
15 *49:24 *50:38 9.67842e-05
16 *49:24 *50:46 9.91024e-05
17 *49:24 *52:19 4.60263e-05
18 *49:39 *126:A 4.84129e-06
19 *49:39 *51:26 0.000151919
20 *49:39 *66:10 3.13396e-05
21 *49:39 *66:35 3.36312e-06
22 *25:31 *49:24 0.000162422
23 *26:10 *49:39 3.33963e-05
24 *27:14 *49:24 0.000138718
25 *27:14 *49:39 0.00022443
26 *28:18 *49:24 0
27 *28:43 *49:8 4.07715e-05
28 *28:43 *49:12 1.48605e-05
29 *28:43 *49:24 0
30 *28:43 *49:39 4.04598e-06
31 *29:10 *49:24 7.76364e-06
32 *30:10 *49:12 5.50049e-05
33 *30:10 *49:24 5.45887e-05
*RES
1 *153:X *49:8 40.61 
2 *49:8 *49:12 19.4329 
3 *49:12 *49:24 38.4721 
4 *49:24 *132:B 23 
5 *49:12 *49:39 35.1786 
6 *49:39 *126:B 23 
7 *49:12 *129:C 23 
*END

*D_NET *50 0.00333576
*CONN
*I *132:A I *D sky130_fd_sc_hd__and4_1
*I *125:A I *D sky130_fd_sc_hd__or3_1
*I *144:A I *D sky130_fd_sc_hd__and3_1
*I *130:A I *D sky130_fd_sc_hd__xnor2_1
*I *154:X O *D sky130_fd_sc_hd__buf_1
*CAP
1 *132:A 0
2 *125:A 0
3 *144:A 0
4 *130:A 2.80304e-05
5 *154:X 0.000101759
6 *50:46 0.000222226
7 *50:38 0.000594061
8 *50:23 0.000461434
9 *50:12 0.000236716
10 *50:8 0.000220846
11 *50:46 *132:C 1.59071e-05
12 *50:46 *132:D 0.000176877
13 *50:46 *51:26 1.12863e-05
14 *50:46 *62:14 1.87814e-05
15 *50:46 *66:35 8.10225e-05
16 *150:A *50:38 7.53384e-06
17 *28:18 *50:46 6.17437e-06
18 *28:43 *130:A 3.7122e-06
19 *28:43 *50:23 0.000166522
20 *28:43 *50:38 0.000188256
21 *43:18 *50:38 0.0002939
22 *43:18 *50:46 9.67842e-05
23 *45:10 *50:38 1.05235e-05
24 *49:8 *50:8 5.61311e-05
25 *49:8 *50:23 3.47781e-05
26 *49:12 *130:A 5.3304e-05
27 *49:12 *50:12 5.3304e-05
28 *49:24 *50:38 9.67842e-05
29 *49:24 *50:46 9.91024e-05
*RES
1 *154:X *50:8 40.2579 
2 *50:8 *50:12 17.0507 
3 *50:12 *130:A 23.6214 
4 *50:12 *50:23 17.2579 
5 *50:23 *144:A 38 
6 *50:23 *50:38 23.0164 