*SPEF "ieee 1481-1999"
*DESIGN "ADC"
*DATE "11:11:11 Fri 11 11, 1111"
*VENDOR "OpenRCX"
*PROGRAM "Parallel Extraction"
*VERSION "1.0"
*DESIGN_FLOW "NAME_SCOPE LOCAL" "PIN_CAP NONE"
*DIVIDER /
*DELIMITER :
*BUS_DELIMITER []
*T_UNIT 1 NS
*C_UNIT 1 PF
*R_UNIT 1 OHM
*L_UNIT 1 HENRY

*NAME_MAP
*3 b[0]
*4 b[1]
*5 b[2]
*6 b[3]
*7 p[0]
*8 p[10]
*9 p[11]
*10 p[12]
*11 p[13]
*12 p[14]
*13 p[1]
*14 p[2]
*15 p[3]
*16 p[4]
*17 p[5]
*18 p[6]
*19 p[7]
*20 p[8]
*21 p[9]
*22 _00_
*23 _01_
*24 _02_
*25 _03_
*26 _04_
*27 _05_
*28 _06_
*29 _07_
*30 _08_
*31 _09_
*32 _10_
*33 _11_
*34 _12_
*35 _13_
*36 _14_
*37 _15_
*38 _16_
*39 _17_
*40 _18_
*41 _19_
*42 _20_
*43 _21_
*44 _22_
*45 _23_
*46 _24_
*47 _25_
*48 net1
*49 net10
*50 net11
*51 net12
*52 net13
*53 net14
*54 net15
*55 net16
*56 net17
*57 net18
*58 net19
*59 net2
*60 net3
*61 net4
*62 net5
*63 net6
*64 net7
*65 net8
*66 net9
*67 FILLER_0_0_13
*68 FILLER_0_0_20
*69 FILLER_0_0_27
*70 FILLER_0_0_29
*71 FILLER_0_0_34
*72 FILLER_0_0_41
*73 FILLER_0_0_48
*74 FILLER_0_0_6
*75 FILLER_0_1_12
*76 FILLER_0_1_20
*77 FILLER_0_1_43
*78 FILLER_0_2_13
*79 FILLER_0_2_22
*80 FILLER_0_2_3
*81 FILLER_0_2_42
*82 FILLER_0_2_48
*83 FILLER_0_3_13
*84 FILLER_0_3_24
*85 FILLER_0_3_32
*86 FILLER_0_3_37
*87 FILLER_0_3_41
*88 FILLER_0_3_45
*89 FILLER_0_4_42
*90 FILLER_0_5_3
*91 FILLER_0_5_45
*92 FILLER_0_6_25
*93 FILLER_0_6_36
*94 FILLER_0_6_42
*95 FILLER_0_6_6
*96 FILLER_0_7_15
*97 FILLER_0_7_26
*98 FILLER_0_7_32
*99 FILLER_0_7_44
*100 FILLER_0_7_48
*101 PHY_EDGE_ROW_0_Left_8
*102 PHY_EDGE_ROW_0_Right_0
*103 PHY_EDGE_ROW_1_Left_9
*104 PHY_EDGE_ROW_1_Right_1
*105 PHY_EDGE_ROW_2_Left_10
*106 PHY_EDGE_ROW_2_Right_2
*107 PHY_EDGE_ROW_3_Left_11
*108 PHY_EDGE_ROW_3_Right_3
*109 PHY_EDGE_ROW_4_Left_12
*110 PHY_EDGE_ROW_4_Right_4
*111 PHY_EDGE_ROW_5_Left_13
*112 PHY_EDGE_ROW_5_Right_5
*113 PHY_EDGE_ROW_6_Left_14
*114 PHY_EDGE_ROW_6_Right_6
*115 PHY_EDGE_ROW_7_Left_15
*116 PHY_EDGE_ROW_7_Right_7
*117 TAP_TAPCELL_ROW_0_16
*118 TAP_TAPCELL_ROW_2_17
*119 TAP_TAPCELL_ROW_4_18
*120 TAP_TAPCELL_ROW_6_19
*121 TAP_TAPCELL_ROW_7_20
*122 _26_
*123 _27_
*124 _28_
*125 _29_
*126 _30_
*127 _31_
*128 _32_
*129 _33_
*130 _34_
*131 _35_
*132 _36_
*133 _37_
*134 _38_
*135 _39_
*136 _40_
*137 _41_
*138 _42_
*139 _43_
*140 _44_
*141 _45_
*142 _46_
*143 _47_
*144 _48_
*145 _49_
*146 _50_
*147 _51_
*148 _52_
*149 _53_
*150 _54_
*151 _55_
*152 input1
*153 input10
*154 input11
*155 input12
*156 input13
*157 input14
*158 input15
*159 input2
*160 input3
*161 input4
*162 input5
*163 input6
*164 input7
*165 input8
*166 input9
*167 output16
*168 output17
*169 output18
*170 output19

*PORTS
b[0] O
b[1] O
b[2] O
b[3] O
p[0] I
p[10] I
p[11] I
p[12] I
p[13] I
p[14] I
p[1] I
p[2] I
p[3] I
p[4] I
p[5] I
p[6] I
p[7] I
p[8] I
p[9] I

*D_NET *3 0.000489906
*CONN
*P b[0] O
*I *167:X O *D sky130_fd_sc_hd__clkbuf_4
*CAP
1 b[0] 0.000194261
2 *167:X 0.000194261
3 b[0] b[2] 9.28756e-05
4 b[0] *167:A 8.50795e-06
*RES
1 *167:X b[0] 18.1949 
*END

*D_NET *4 0.000642892
*CONN
*P b[1] O
*I *168:X O *D sky130_fd_sc_hd__clkbuf_4
*CAP
1 b[1] 0.000256622
2 *168:X 0.000256622
3 b[1] *159:A 0.000129648
*RES
1 *168:X b[1] 20.3518 
*END

*D_NET *5 0.000479342
*CONN
*P b[2] O
*I *169:X O *D sky130_fd_sc_hd__clkbuf_4
*CAP
1 b[2] 0.000193233
2 *169:X 0.000193233
3 b[2] *134:B 0
4 b[0] b[2] 9.28756e-05
*RES
1 *169:X b[2] 18.1949 
*END

*D_NET *6 0.00135371
*CONN
*P b[3] O
*I *170:X O *D sky130_fd_sc_hd__clkbuf_4
*CAP
1 b[3] 0.00042618
2 *170:X 0.00042618
3 b[3] *157:A 0.000154762
4 b[3] *158:A 0
5 b[3] *160:A 3.45861e-05
6 b[3] *162:A 8.3155e-05
7 b[3] *170:A 2.37761e-05
8 b[3] *59:12 9.97365e-05
9 b[3] *59:29 0.000105338
*RES
1 *170:X b[3] 23.6592 
*END

*D_NET *7 0.000813598
*CONN
*P p[0] I
*I *152:A I *D sky130_fd_sc_hd__clkbuf_1
*CAP
1 p[0] 0.000406799
2 *152:A 0.000406799
3 *152:A *164:A 0
*RES
1 p[0] *152:A 21.9607 
*END

*D_NET *8 0.00103529
*CONN
*P p[10] I
*I *159:A I *D sky130_fd_sc_hd__buf_1
*CAP
1 p[10] 0.000367973
2 *159:A 0.000367973
3 *159:A *162:A 4.42999e-05
4 *159:A *168:A 0.00010096
5 *159:A *59:10 2.44318e-05
6 b[1] *159:A 0.000129648
*RES
1 p[10] *159:A 23.8882 
*END

*D_NET *9 0.000897302
*CONN
*P p[11] I
*I *160:A I *D sky130_fd_sc_hd__buf_1
*CAP
1 p[11] 0.000414065
2 *160:A 0.000414065
3 *160:A *158:A 3.45861e-05
4 *160:A *59:12 0
5 b[3] *160:A 3.45861e-05
*RES
1 p[11] *160:A 23.8875 
*END

*D_NET *10 0.00143678
*CONN
*P p[12] I
*I *161:A I *D sky130_fd_sc_hd__clkbuf_1
*CAP
1 p[12] 0.000647724
2 *161:A 0.000647724
3 *161:A *137:A 2.23592e-05
4 *161:A *137:B 5.52238e-05
5 *161:A *63:10 6.37494e-05
*RES
1 p[12] *161:A 26.5679 
*END

*D_NET *11 0.000449513
*CONN
*P p[13] I
*I *162:A I *D sky130_fd_sc_hd__dlymetal6s2s_1
*CAP
1 p[13] 0.000157893
2 *162:A 0.000157893
3 *162:A *59:12 6.27272e-06
4 b[3] *162:A 8.3155e-05
5 *159:A *162:A 4.42999e-05
*RES
1 p[13] *162:A 18.1229 
*END

*D_NET *12 0.0011893
*CONN
*P p[14] I
*I *163:A I *D sky130_fd_sc_hd__buf_1
*CAP
1 p[14] 0.000439416
2 *163:A 0.000439416
3 *163:A *157:A 4.42999e-05
4 *163:A *158:A 0.000266166
*RES
1 p[14] *163:A 24.6203 
*END

*D_NET *13 0.000813598
*CONN
*P p[1] I
*I *164:A I *D sky130_fd_sc_hd__buf_1
*CAP
1 p[1] 0.000406799
2 *164:A 0.000406799
3 *164:A *165:A 0
4 *152:A *164:A 0
*RES
1 p[1] *164:A 21.9607 
*END

*D_NET *14 0.000815575
*CONN
*P p[2] I
*I *165:A I *D sky130_fd_sc_hd__buf_1
*CAP
1 p[2] 0.000407788
2 *165:A 0.000407788
3 *165:A *166:A 0
4 *164:A *165:A 0
*RES
1 p[2] *165:A 21.9607 
*END

*D_NET *15 0.000817553
*CONN
*P p[3] I
*I *166:A I *D sky130_fd_sc_hd__clkbuf_1
*CAP
1 p[3] 0.000408777
2 *166:A 0.000408777
3 *166:A *156:A 0
4 *165:A *166:A 0
*RES
1 p[3] *166:A 21.9607 
*END

*D_NET *16 0.00125561
*CONN
*P p[4] I
*I *153:A I *D sky130_fd_sc_hd__buf_1
*CAP
1 p[4] 0.000577327
2 *153:A 0.000577327
3 *153:A *154:A 0.00010096
*RES
1 p[4] *153:A 24.425 
*END

*D_NET *17 0.00109306
*CONN
*P p[5] I
*I *154:A I *D sky130_fd_sc_hd__buf_1
*CAP
1 p[5] 0.000496052
2 *154:A 0.000496052
3 *154:A *155:A 0
4 *153:A *154:A 0.00010096
*RES
1 p[5] *154:A 23.8179 
*END

*D_NET *18 0.000813598
*CONN
*P p[6] I
*I *155:A I *D sky130_fd_sc_hd__buf_1
*CAP
1 p[6] 0.000406799
2 *155:A 0.000406799
3 *155:A *156:A 0
4 *154:A *155:A 0
*RES
1 p[6] *155:A 21.9607 
*END

*D_NET *19 0.00089693
*CONN
*P p[7] I
*I *156:A I *D sky130_fd_sc_hd__buf_1
*CAP
1 p[7] 0.000448465
2 *156:A 0.000448465
3 *155:A *156:A 0
4 *166:A *156:A 0
*RES
1 p[7] *156:A 22.7821 
*END

*D_NET *20 0.00140307
*CONN
*P p[8] I
*I *157:A I *D sky130_fd_sc_hd__buf_1
*CAP
1 p[8] 0.000599683
2 *157:A 0.000599683
3 *157:A *158:A 4.64488e-06
4 *157:A *170:A 0
5 b[3] *157:A 0.000154762
6 *163:A *157:A 4.42999e-05
*RES
1 p[8] *157:A 26.3193 
*END

*D_NET *21 0.00111296
*CONN
*P p[9] I
*I *158:A I *D sky130_fd_sc_hd__buf_1
*CAP
1 p[9] 0.000375207
2 *158:A 0.000375207
3 *158:A *63:10 5.71472e-05
4 b[3] *158:A 0
5 *157:A *158:A 4.64488e-06
6 *160:A *158:A 3.45861e-05
7 *163:A *158:A 0.000266166
*RES
1 p[9] *158:A 23.3888 
*END

*D_NET *22 0.00167089
*CONN
*I *139:A_N I *D sky130_fd_sc_hd__and4b_1
*I *136:D I *D sky130_fd_sc_hd__nor4_1
*I *124:A I *D sky130_fd_sc_hd__nor2_1
*I *122:X O *D sky130_fd_sc_hd__or3_1
*CAP
1 *139:A_N 0
2 *136:D 0.00012705
3 *124:A 5.78962e-05
4 *122:X 0
5 *22:25 0.000307021
6 *22:4 0.000237867
7 *124:A *145:B1 1.12102e-05
8 *124:A *151:C1 7.25272e-05
9 *124:A *42:16 7.22503e-05
10 *136:D *133:D 0
11 *136:D *137:A 4.52652e-05
12 *136:D *139:C 4.22986e-05
13 *136:D *141:C1 5.49544e-05
14 *136:D *151:A1 2.12786e-05
15 *136:D *33:14 8.69373e-06
16 *136:D *36:10 4.92796e-05
17 *22:25 *134:D 8.17274e-05
18 *22:25 *140:B1 0
19 *22:25 *141:C1 4.01264e-05
20 *22:25 *151:C1 1.03105e-05
21 *22:25 *32:16 9.76123e-05
22 *22:25 *33:14 5.49489e-05
23 *22:25 *37:20 9.91086e-05
24 *22:25 *44:12 0.000179469
*RES
1 *122:X *22:4 9.3 
2 *22:4 *124:A 10.8714 
3 *22:4 *22:25 13.4821 
4 *22:25 *136:D 21.0857 
5 *22:25 *139:A_N 9.3 
*END

*D_NET *23 0.00141159
*CONN
*I *124:B I *D sky130_fd_sc_hd__nor2_1
*I *123:X O *D sky130_fd_sc_hd__or4_1
*CAP
1 *124:B 0.000558604
2 *123:X 0.000558604
3 *124:B *123:B 0
4 *124:B *128:A 0.000101545
5 *124:B *128:B 0
6 *124:B *128:C 8.69392e-05
7 *124:B *142:A 6.86792e-05
8 *124:B *145:A2 6.37883e-06
9 *124:B *145:B1 3.08445e-05
*RES
1 *123:X *124:B 35.3321 
*END

*D_NET *24 0.00508341
*CONN
*I *144:B I *D sky130_fd_sc_hd__and3_1
*I *141:A1 I *D sky130_fd_sc_hd__a221o_1
*I *148:A1 I *D sky130_fd_sc_hd__a32o_1
*I *145:A2 I *D sky130_fd_sc_hd__a311o_1
*I *124:Y O *D sky130_fd_sc_hd__nor2_1
*CAP
1 *144:B 0.000303692
2 *141:A1 0.000154025
3 *148:A1 0
4 *145:A2 0.000475274
5 *124:Y 0
6 *24:23 0.000175752
7 *24:21 0.000667245
8 *24:4 0.0008171
9 *141:A1 *122:A 7.48927e-06
10 *141:A1 *141:A2 0.000193099
11 *141:A1 *141:B1 9.54798e-06
12 *141:A1 *148:B1 6.77119e-05
13 *141:A1 *151:C1 1.58163e-05
14 *141:A1 *28:26 0
15 *141:A1 *28:37 1.24368e-05
16 *141:A1 *44:12 7.6644e-05
17 *144:B *129:B 0.000270236
18 *144:B *149:A 0.000198691
19 *144:B *28:37 0.000263524
20 *144:B *43:10 7.6644e-05
21 *145:A2 *123:B 6.39901e-05
22 *145:A2 *128:A 0.00018974
23 *145:A2 *128:D 0.000242913
24 *145:A2 *140:A3 2.47833e-05
25 *145:A2 *142:A 2.36643e-05
26 *145:A2 *145:A1 9.83442e-05
27 *145:A2 *145:A3 0.000139637
28 *145:A2 *151:B1 1.59373e-05
29 *145:A2 *151:C1 9.74665e-05
30 *145:A2 *170:A 6.05161e-06
31 *145:A2 *37:20 3.13483e-05
32 *24:21 *122:A 0.000140714
33 *24:21 *148:B1 1.43404e-05
34 *24:21 *151:C1 0.000200091
35 *24:23 *122:A 3.08382e-06
36 *124:B *145:A2 6.37883e-06
*RES
1 *124:Y *24:4 9.3 
2 *24:4 *145:A2 28.1571 
3 *24:4 *24:21 4.64286 
4 *24:21 *24:23 0.428571 
5 *24:23 *148:A1 9.3 
6 *24:23 *141:A1 22.9071 
7 *24:21 *144:B 24.7643 
*END

*D_NET *25 0.00283587
*CONN
*I *147:A I *D sky130_fd_sc_hd__inv_2
*I *126:C I *D sky130_fd_sc_hd__or4b_1
*I *125:X O *D sky130_fd_sc_hd__or3_1
*CAP
1 *147:A 0.00029048
2 *126:C 0.000522766
3 *125:X 0
4 *25:4 0.000813247
5 *126:C *126:A 3.69047e-06
6 *126:C *126:D_N 1.22034e-05
7 *126:C *128:A 0
8 *126:C *128:B 8.70326e-05
9 *126:C *131:A2_N 1.57828e-05
10 *126:C *142:A 0.000137561
11 *126:C *48:10 5.12785e-05
12 *126:C *64:12 0
13 *126:C *64:21 0
14 *147:A *125:B 0.000181381
15 *147:A *131:A1_N 5.33005e-05
16 *147:A *132:B 0.000147474
17 *147:A *141:A2 0.000228555
18 *147:A *142:A 0.000291113
*RES
1 *125:X *25:4 9.3 
2 *25:4 *126:C 25.925 
3 *25:4 *147:A 25.3179 
*END

*D_NET *26 0.00295424
*CONN
*I *131:A1_N I *D sky130_fd_sc_hd__a2bb2o_1
*I *142:A I *D sky130_fd_sc_hd__inv_2
*I *126:X O *D sky130_fd_sc_hd__or4b_1
*CAP
1 *131:A1_N 1.92319e-05
2 *142:A 0.000385249
3 *126:X 0.00018043
4 *26:12 0.00058491
5 *131:A1_N *141:A2 1.21258e-05
6 *142:A *123:B 2.89114e-05
7 *142:A *141:A2 1.21258e-05
8 *142:A *145:A1 1.59373e-05
9 *142:A *145:A3 0.000333438
10 *142:A *145:B1 2.12087e-05
11 *142:A *145:C1 0.000270082
12 *26:12 *126:B 3.48766e-05
13 *26:12 *129:A_N 5.49489e-05
14 *26:12 *145:C1 3.27461e-05
15 *26:12 *51:26 0.000130038
16 *26:12 *52:8 3.17148e-05
17 *26:12 *52:19 0.000231948
18 *124:B *142:A 6.86792e-05
19 *126:C *142:A 0.000137561
20 *145:A2 *142:A 2.36643e-05
21 *147:A *131:A1_N 5.33005e-05
22 *147:A *142:A 0.000291113
*RES
1 *126:X *26:12 22.7107 
2 *26:12 *142:A 19.8357 
3 *26:12 *131:A1_N 9.83571 
*END

*D_NET *27 0.00166053
*CONN
*I *131:A2_N I *D sky130_fd_sc_hd__a2bb2o_1
*I *127:X O *D sky130_fd_sc_hd__xor2_1
*CAP
1 *131:A2_N 0.000531258
2 *127:X 0.000531258
3 *131:A2_N *126:A 5.20751e-05
4 *131:A2_N *126:B 0.000223762
5 *131:A2_N *126:D_N 5.49489e-05
6 *131:A2_N *132:B 0.000125724
7 *131:A2_N *168:A 0
8 *131:A2_N *52:19 0.000125724
9 *126:C *131:A2_N 1.57828e-05
*RES
1 *127:X *131:A2_N 35.8679 
*END

*D_NET *28 0.00787786
*CONN
*I *137:A I *D sky130_fd_sc_hd__and2_1
*I *139:B I *D sky130_fd_sc_hd__and4b_1
*I *134:B I *D sky130_fd_sc_hd__and4_1
*I *129:B I *D sky130_fd_sc_hd__and3b_1
*I *148:A2 I *D sky130_fd_sc_hd__a32o_1
*I *128:X O *D sky130_fd_sc_hd__and4_1
*CAP
1 *137:A 0.000322265
2 *139:B 5.51756e-05
3 *134:B 0.000175608
4 *129:B 0.00051901
5 *148:A2 0
6 *128:X 0.000515414
7 *28:71 0.000956845
8 *28:37 0.000821619
9 *28:28 0.000127001
10 *28:26 0.00109482
11 *129:B *126:B 4.0342e-06
12 *129:B *130:A 3.69047e-06
13 *129:B *130:B 9.47712e-05
14 *129:B *131:B2 0
15 *129:B *132:B 0
16 *129:B *149:A 1.08359e-05
17 *129:B *150:A 8.00806e-05
18 *129:B *169:A 0
19 *129:B *29:14 5.71472e-05
20 *129:B *49:12 5.40173e-05
21 *129:B *50:23 0.000150625
22 *129:B *50:38 0.000169405
23 *134:B *134:A 4.6025e-06
24 *134:B *134:C 9.54798e-06
25 *134:B *141:A2 0
26 *134:B *149:A 1.31516e-05
27 *134:B *167:A 0
28 *137:A *133:D 0
29 *137:A *137:B 7.68957e-05
30 *137:A *139:C 3.04117e-05
31 *137:A *33:14 0.000244968
32 *137:A *37:10 7.97148e-05
33 *137:A *42:16 3.06878e-06
34 *137:A *54:10 0
35 *137:A *63:10 0.000139637
36 *139:B *139:C 0.000137561
37 *139:B *141:C1 0.000182605
38 *28:26 *125:A 6.05161e-06
39 *28:26 *132:B 0
40 *28:26 *132:D 8.6229e-06
41 *28:26 *141:A2 1.12577e-05
42 *28:26 *145:B1 8.49861e-06
43 *28:26 *148:A3 9.43598e-05
44 *28:26 *148:B1 3.86333e-06
45 *28:26 *62:18 0.000150559
46 *28:37 *149:B 2.40107e-05
47 *28:37 *149:C 5.71472e-05
48 *28:71 *122:B 0.000165591
49 *28:71 *122:C 3.48025e-05
50 *28:71 *134:C 5.23811e-05
51 *28:71 *137:B 4.22135e-06
52 *28:71 *141:C1 0.000248595
53 *28:71 *148:A3 1.90936e-05
54 *28:71 *32:16 0.000237499
55 *28:71 *62:18 2.95746e-06
56 b[2] *134:B 0
57 *136:D *137:A 4.52652e-05
58 *141:A1 *28:26 0
59 *141:A1 *28:37 1.24368e-05
60 *144:B *129:B 0.000270236
61 *144:B *28:37 0.000263524
62 *161:A *137:A 2.23592e-05
*RES
1 *128:X *28:26 26.3494 
2 *28:26 *28:28 4.5 
3 *28:28 *148:A2 9.3 
4 *28:28 *28:37 7.5 
5 *28:37 *129:B 24.5143 
6 *28:37 *134:B 16.9607 
7 *28:26 *28:71 18.05 
8 *28:71 *139:B 11.0679 
9 *28:71 *137:A 34.1036 
*END

*D_NET *29 0.00072644
*CONN
*I *144:C I *D sky130_fd_sc_hd__and3_1
*I *131:B1 I *D sky130_fd_sc_hd__a2bb2o_1
*I *129:X O *D sky130_fd_sc_hd__and3b_1
*CAP
1 *144:C 7.30036e-05
2 *131:B1 1.41866e-05
3 *129:X 0.000144394
4 *29:14 0.000231585
5 *131:B1 *141:A2 1.6132e-05
6 *144:C *43:10 1.72894e-05
7 *29:14 *130:B 7.28277e-05
8 *29:14 *131:B2 7.83659e-05
9 *29:14 *132:B 7.80714e-06
10 *29:14 *141:A2 1.3701e-05
11 *29:14 *51:26 0
12 *129:B *29:14 5.71472e-05
*RES
1 *129:X *29:14 21.5143 
2 *29:14 *131:B1 9.72857 
3 *29:14 *144:C 10.5143 
*END

*D_NET *30 0.000373191
*CONN
*I *131:B2 I *D sky130_fd_sc_hd__a2bb2o_1
*I *130:Y O *D sky130_fd_sc_hd__xnor2_1
*CAP
1 *131:B2 9.3587e-05
2 *130:Y 9.3587e-05
3 *131:B2 *132:B 5.24274e-05
4 *131:B2 *49:12 5.52238e-05
5 *129:B *131:B2 0
6 *29:14 *131:B2 7.83659e-05
*RES
1 *130:Y *131:B2 29.475 
*END

*D_NET *31 0.00184672
*CONN
*I *141:A2 I *D sky130_fd_sc_hd__a221o_1
*I *131:X O *D sky130_fd_sc_hd__a2bb2o_1
*CAP
1 *141:A2 0.000540395
2 *131:X 0.000540395
3 *141:A2 *134:D 1.46576e-05
4 *141:A2 *141:B2 1.8134e-05
5 *141:A2 *145:C1 1.24368e-05
6 *141:A2 *148:A3 0.000123295
7 *141:A2 *148:B1 4.32182e-06
8 *141:A2 *149:A 8.04231e-05
9 *141:A2 *43:10 2.56601e-05
10 *131:A1_N *141:A2 1.21258e-05
11 *131:B1 *141:A2 1.6132e-05
12 *134:B *141:A2 0
13 *141:A1 *141:A2 0.000193099
14 *142:A *141:A2 1.21258e-05
15 *147:A *141:A2 0.000228555
16 *28:26 *141:A2 1.12577e-05
17 *29:14 *141:A2 1.3701e-05
*RES
1 *131:X *141:A2 39.033 
*END

*D_NET *32 0.00466597
*CONN
*I *137:B I *D sky130_fd_sc_hd__and2_1
*I *134:C I *D sky130_fd_sc_hd__and4_1
*I *139:C I *D sky130_fd_sc_hd__and4b_1
*I *132:X O *D sky130_fd_sc_hd__and4_1
*CAP
1 *137:B 0.000239515
2 *134:C 0.000753277
3 *139:C 0.000409494
4 *132:X 0.000310286
5 *32:18 0.00116277
6 *32:16 0.000549802
7 *134:C *134:A 2.95076e-06
8 *134:C *167:A 5.7836e-06
9 *137:B *122:B 7.34321e-06
10 *137:B *37:10 0.000270229
11 *137:B *37:20 4.28365e-05
12 *139:C *128:C 0
13 *139:C *141:C1 2.28499e-05
14 *139:C *33:14 4.22135e-06
15 *32:16 *145:B1 0.000100031
16 *32:16 *37:20 4.09305e-05
17 *32:16 *62:18 0
18 *134:B *134:C 9.54798e-06
19 *136:D *139:C 4.22986e-05
20 *137:A *137:B 7.68957e-05
21 *137:A *139:C 3.04117e-05
22 *139:B *139:C 0.000137561
23 *161:A *137:B 5.52238e-05
24 *22:25 *32:16 9.76123e-05
25 *28:71 *134:C 5.23811e-05
26 *28:71 *137:B 4.22135e-06
27 *28:71 *32:16 0.000237499
*RES
1 *132:X *32:16 20.0589 
2 *32:16 *32:18 3.41 
3 *32:18 *139:C 19.9655 
4 *32:18 *134:C 18.7589 
5 *32:16 *137:B 19.1661 
*END

*D_NET *33 0.00311548
*CONN
*I *134:D I *D sky130_fd_sc_hd__and4_1
*I *146:D I *D sky130_fd_sc_hd__and4bb_1
*I *133:X O *D sky130_fd_sc_hd__and4_1
*CAP
1 *134:D 0.000300125
2 *146:D 0
3 *133:X 0.000247506
4 *33:14 0.000547632
5 *134:D *141:B2 0.000158075
6 *134:D *141:C1 0.00034694
7 *134:D *146:A_N 0.000139202
8 *134:D *167:A 0.000125057
9 *134:D *34:14 0.000123387
10 *134:D *44:12 0.000114576
11 *33:14 *136:B 9.80173e-05
12 *33:14 *136:C 0.000141554
13 *33:14 *141:C1 5.33005e-05
14 *33:14 *143:B1 0.00012316
15 *33:14 *37:10 4.6049e-05
16 *33:14 *42:16 0.000141684
17 *136:D *33:14 8.69373e-06
18 *137:A *33:14 0.000244968
19 *139:C *33:14 4.22135e-06
20 *141:A2 *134:D 1.46576e-05
21 *22:25 *134:D 8.17274e-05
22 *22:25 *33:14 5.49489e-05
*RES
1 *133:X *33:14 25.4071 
2 *33:14 *146:D 9.3 
3 *33:14 *134:D 18.0679 
*END

*D_NET *34 0.00286711
*CONN
*I *143:A2 I *D sky130_fd_sc_hd__a21o_1
*I *141:B1 I *D sky130_fd_sc_hd__a221o_1
*I *148:B1 I *D sky130_fd_sc_hd__a32o_1
*I *134:X O *D sky130_fd_sc_hd__and4_1
*CAP
1 *143:A2 0.000227208
2 *141:B1 4.0123e-05
3 *148:B1 0.000152442
4 *134:X 0.000348594
5 *34:16 0.000217637
6 *34:14 0.000600875
7 *143:A2 *135:A 0.000108524
8 *143:A2 *143:A1 0.000307064
9 *143:A2 *62:55 6.81083e-05
10 *143:A2 *63:12 1.08359e-05
11 *148:B1 *148:A3 3.47641e-06
12 *148:B1 *151:C1 1.02337e-05
13 *148:B1 *44:12 7.6644e-05
14 *148:B1 *62:18 2.83284e-06
15 *148:B1 *62:42 0.000118903
16 *148:B1 *62:55 6.62911e-05
17 *34:14 *141:B2 0.000221644
18 *34:14 *167:A 2.65105e-05
19 *34:16 *141:B2 0
20 *34:16 *62:55 3.59911e-05
21 *134:D *34:14 0.000123387
22 *141:A1 *141:B1 9.54798e-06
23 *141:A1 *148:B1 6.77119e-05
24 *141:A2 *148:B1 4.32182e-06
25 *24:21 *148:B1 1.43404e-05
26 *28:26 *148:B1 3.86333e-06
*RES
1 *134:X *34:14 19.8357 
2 *34:14 *34:16 0.580357 
3 *34:16 *148:B1 17.5857 
4 *34:16 *141:B1 14.6125 
5 *34:14 *143:A2 18.9786 
*END

*D_NET *35 0.00112771
*CONN
*I *141:B2 I *D sky130_fd_sc_hd__a221o_1
*I *135:Y O *D sky130_fd_sc_hd__xnor2_1
*CAP
1 *141:B2 0.000305435
2 *135:Y 0.000305435
3 *141:B2 *134:A 0.000118986
4 *134:D *141:B2 0.000158075
5 *141:A2 *141:B2 1.8134e-05
6 *34:14 *141:B2 0.000221644
7 *34:16 *141:B2 0
*RES
1 *135:Y *141:B2 33.6357 
*END

*D_NET *36 0.00148009
*CONN
*I *151:A1 I *D sky130_fd_sc_hd__a211o_1
*I *140:A2 I *D sky130_fd_sc_hd__a32o_1
*I *136:Y O *D sky130_fd_sc_hd__nor4_1
*CAP
1 *151:A1 0.000172719
2 *140:A2 0.000185451
3 *136:Y 0.00011191
4 *36:10 0.000470081
5 *140:A2 *140:A1 9.71197e-05
6 *140:A2 *140:B1 6.56062e-05
7 *140:A2 *141:C1 0.000139913
8 *140:A2 *39:8 5.52238e-05
9 *151:A1 *123:B 0
10 *151:A1 *139:D 0
11 *151:A1 *140:B1 2.62658e-05
12 *36:10 *140:B1 6.8646e-06
13 *36:10 *143:B1 7.83748e-05
14 *136:D *151:A1 2.12786e-05
15 *136:D *36:10 4.92796e-05
*RES
1 *136:Y *36:10 15.8268 
2 *36:10 *140:A2 17.6125 
3 *36:10 *151:A1 16.8089 
*END

*D_NET *37 0.00310276
*CONN
*I *146:C I *D sky130_fd_sc_hd__and4bb_1
*I *151:A2 I *D sky130_fd_sc_hd__a211o_1
*I *140:A3 I *D sky130_fd_sc_hd__a32o_1
*I *137:X O *D sky130_fd_sc_hd__and2_1
*CAP
1 *146:C 0
2 *151:A2 2.88941e-05
3 *140:A3 0.00019942
4 *137:X 0.000169913
5 *37:20 0.000542343
6 *37:10 0.000483942
7 *140:A3 *138:B 5.33005e-05
8 *140:A3 *170:A 9.60771e-05
9 *140:A3 *53:21 0.00015234
10 *140:A3 *60:26 0.000150625
11 *151:A2 *151:B1 1.3701e-05
12 *151:A2 *42:16 0
13 *37:10 *42:16 6.81083e-05
14 *37:10 *63:10 9.5598e-05
15 *37:20 *145:B1 6.75459e-05
16 *37:20 *151:B1 0.000143375
17 *37:20 *42:16 0.000202574
18 *137:A *37:10 7.97148e-05
19 *137:B *37:10 0.000270229
20 *137:B *37:20 4.28365e-05
21 *145:A2 *140:A3 2.47833e-05
22 *145:A2 *37:20 3.13483e-05
23 *22:25 *37:20 9.91086e-05
24 *32:16 *37:20 4.09305e-05
25 *33:14 *37:10 4.6049e-05
*RES
1 *137:X *37:10 18.2107 
2 *37:10 *37:20 11.3214 
3 *37:20 *140:A3 23.2643 
4 *37:20 *151:A2 10.0321 
5 *37:10 *146:C 13.8 
*END

*D_NET *38 0.000510546
*CONN
*I *139:D I *D sky130_fd_sc_hd__and4b_1
*I *138:X O *D sky130_fd_sc_hd__and3b_1
*CAP
1 *139:D 9.10908e-05
2 *138:X 9.10908e-05
3 *139:D *123:B 9.25014e-06
4 *139:D *140:B1 0.000109195
5 *139:D *141:C1 8.41883e-05
6 *139:D *54:36 0.000125731
7 *151:A1 *139:D 0
*RES
1 *138:X *139:D 30.0777 
*END

*D_NET *39 0.0019595
*CONN
*I *143:B1 I *D sky130_fd_sc_hd__a21o_1
*I *140:B1 I *D sky130_fd_sc_hd__a32o_1
*I *139:X O *D sky130_fd_sc_hd__and4b_1
*CAP
1 *143:B1 0.000248649
2 *140:B1 0.000346628
3 *139:X 3.92359e-05
4 *39:8 0.000634514
5 *140:B1 *140:A1 1.98839e-05
6 *140:B1 *140:B2 1.1671e-05
7 *140:B1 *141:C1 1.98839e-05
8 *140:B1 *54:36 3.57844e-05
9 *143:B1 *133:B 0
10 *143:B1 *133:D 9.25014e-06
11 *143:B1 *136:B 1.95646e-05
12 *143:B1 *42:16 4.82865e-05
13 *143:B1 *54:23 3.24471e-05
14 *143:B1 *54:36 2.90068e-05
15 *139:D *140:B1 0.000109195
16 *140:A2 *140:B1 6.56062e-05
17 *140:A2 *39:8 5.52238e-05
18 *151:A1 *140:B1 2.62658e-05
19 *22:25 *140:B1 0
20 *33:14 *143:B1 0.00012316
21 *36:10 *140:B1 6.8646e-06
22 *36:10 *143:B1 7.83748e-05
*RES
1 *139:X *39:8 14.3357 
2 *39:8 *140:B1 19.8446 
3 *39:8 *143:B1 19.3536 
*END

*D_NET *40 0.00179565
*CONN
*I *141:C1 I *D sky130_fd_sc_hd__a221o_1
*I *140:X O *D sky130_fd_sc_hd__a32o_1
*CAP
1 *141:C1 0.000252097
2 *140:X 0.000252097
3 *141:C1 *146:B_N 9.81039e-05
4 *134:D *141:C1 0.00034694
5 *136:D *141:C1 5.49544e-05
6 *139:B *141:C1 0.000182605
7 *139:C *141:C1 2.28499e-05
8 *139:D *141:C1 8.41883e-05
9 *140:A2 *141:C1 0.000139913
10 *140:B1 *141:C1 1.98839e-05
11 *22:25 *141:C1 4.01264e-05
12 *28:71 *141:C1 0.000248595
13 *33:14 *141:C1 5.33005e-05
*RES
1 *140:X *141:C1 26.5286 
*END

*D_NET *41 0.00106938
*CONN
*I *145:A3 I *D sky130_fd_sc_hd__a311o_1
*I *142:Y O *D sky130_fd_sc_hd__inv_2
*CAP
1 *145:A3 0.000298152
2 *142:Y 0.000298152
3 *145:A3 *145:A1 0
4 *142:A *145:A3 0.000333438
5 *145:A2 *145:A3 0.000139637
*RES
1 *142:Y *145:A3 24.1 
*END

*D_NET *42 0.00312474
*CONN
*I *145:B1 I *D sky130_fd_sc_hd__a311o_1
*I *151:B1 I *D sky130_fd_sc_hd__a211o_1
*I *143:X O *D sky130_fd_sc_hd__a21o_1
*CAP
1 *145:B1 0.000421895
2 *151:B1 3.7179e-05
3 *143:X 0.000299081
4 *42:16 0.000758155
5 *145:B1 *128:B 0.000262806
6 *145:B1 *128:C 0.000213017
7 *145:B1 *132:D 0
8 *145:B1 *145:A1 5.38444e-06
9 *145:B1 *145:C1 9.58126e-05
10 *145:B1 *151:C1 5.38444e-06
11 *151:B1 *151:C1 6.0975e-05
12 *42:16 *151:C1 1.67308e-05
13 *124:A *145:B1 1.12102e-05
14 *124:A *42:16 7.22503e-05
15 *124:B *145:B1 3.08445e-05
16 *137:A *42:16 3.06878e-06
17 *142:A *145:B1 2.12087e-05
18 *143:B1 *42:16 4.82865e-05
19 *145:A2 *151:B1 1.59373e-05
20 *151:A2 *151:B1 1.3701e-05
21 *151:A2 *42:16 0
22 *28:26 *145:B1 8.49861e-06
23 *32:16 *145:B1 0.000100031
24 *33:14 *42:16 0.000141684
25 *37:10 *42:16 6.81083e-05
26 *37:20 *145:B1 6.75459e-05
27 *37:20 *151:B1 0.000143375
28 *37:20 *42:16 0.000202574
*RES
1 *143:X *42:16 24.3893 
2 *42:16 *151:B1 11.0857 
3 *42:16 *145:B1 26.7464 
*END

*D_NET *43 0.00281349
*CONN
*I *149:A I *D sky130_fd_sc_hd__or3_1
*I *145:C1 I *D sky130_fd_sc_hd__a311o_1
*I *144:X O *D sky130_fd_sc_hd__and3_1
*CAP
1 *149:A 9.73397e-05
2 *145:C1 0.000555631
3 *144:X 7.88391e-05
4 *43:10 0.00073181
5 *145:C1 *125:A 9.71197e-05
6 *145:C1 *132:C 3.00989e-05
7 *145:C1 *132:D 6.85338e-05
8 *145:C1 *50:38 0.000294906
9 *145:C1 *51:26 5.37741e-06
10 *145:C1 *52:19 2.00659e-05
11 *129:B *149:A 1.08359e-05
12 *134:B *149:A 1.31516e-05
13 *141:A2 *145:C1 1.24368e-05
14 *141:A2 *149:A 8.04231e-05
15 *141:A2 *43:10 2.56601e-05
16 *142:A *145:C1 0.000270082
17 *144:B *149:A 0.000198691
18 *144:B *43:10 7.6644e-05
19 *144:C *43:10 1.72894e-05
20 *145:B1 *145:C1 9.58126e-05
21 *26:12 *145:C1 3.27461e-05
*RES
1 *144:X *43:10 15.3714 
2 *43:10 *145:C1 32.9607 
3 *43:10 *149:A 16.9607 
*END

*D_NET *44 0.00328195
*CONN
*I *149:B I *D sky130_fd_sc_hd__or3_1
*I *151:C1 I *D sky130_fd_sc_hd__a211o_1
*I *146:X O *D sky130_fd_sc_hd__and4bb_1
*CAP
1 *149:B 0.000146467
2 *151:C1 0.000397742
3 *146:X 0.000475111
4 *44:12 0.00101932
5 *149:B *149:C 2.27416e-05
6 *151:C1 *122:A 6.8032e-05
7 *151:C1 *122:C 5.24499e-05
8 *44:12 *146:A_N 0.000139202
9 *124:A *151:C1 7.25272e-05
10 *134:D *44:12 0.000114576
11 *141:A1 *151:C1 1.58163e-05
12 *141:A1 *44:12 7.6644e-05
13 *145:A2 *151:C1 9.74665e-05
14 *145:B1 *151:C1 5.38444e-06
15 *148:B1 *151:C1 1.02337e-05
16 *148:B1 *44:12 7.6644e-05
17 *151:B1 *151:C1 6.0975e-05
18 *22:25 *151:C1 1.03105e-05
19 *22:25 *44:12 0.000179469
20 *24:21 *151:C1 0.000200091
21 *28:37 *149:B 2.40107e-05
22 *42:16 *151:C1 1.67308e-05
*RES
1 *146:X *44:12 24.8 
2 *44:12 *151:C1 17.3179 
3 *44:12 *149:B 11.0679 
*END

*D_NET *45 0.00046862
*CONN
*I *148:A3 I *D sky130_fd_sc_hd__a32o_1
*I *147:Y O *D sky130_fd_sc_hd__inv_2
*CAP
1 *148:A3 0.000108812
2 *147:Y 0.000108812
3 *148:A3 *50:38 1.07719e-05
4 *141:A2 *148:A3 0.000123295
5 *148:B1 *148:A3 3.47641e-06
6 *28:26 *148:A3 9.43598e-05
7 *28:71 *148:A3 1.90936e-05
*RES
1 *147:Y *148:A3 29.7786 
*END

*D_NET *46 9.72117e-05
*CONN
*I *149:C I *D sky130_fd_sc_hd__or3_1
*I *148:X O *D sky130_fd_sc_hd__a32o_1
*CAP
1 *149:C 8.66145e-06
2 *148:X 8.66145e-06
3 *149:B *149:C 2.27416e-05
4 *28:37 *149:C 5.71472e-05
*RES
1 *148:X *149:C 19.1357 
*END

*D_NET *47 0.000327797
*CONN
*I *150:A I *D sky130_fd_sc_hd__clkbuf_1
*I *149:X O *D sky130_fd_sc_hd__or3_1
*CAP
1 *150:A 0.000106186
2 *149:X 0.000106186
3 *150:A *169:A 2.79092e-05
4 *150:A *50:38 7.43578e-06
5 *129:B *150:A 8.00806e-05
*RES
1 *149:X *150:A 29.9036 
*END

*D_NET *48 0.00261952
*CONN
*I *128:B I *D sky130_fd_sc_hd__and4_1
*I *126:D_N I *D sky130_fd_sc_hd__or4b_1
*I *152:X O *D sky130_fd_sc_hd__clkbuf_1
*CAP
1 *128:B 0.000257482
2 *126:D_N 1.81722e-05
3 *152:X 0.00053714
4 *48:10 0.000812795
5 *128:B *128:A 0
6 *128:B *128:C 0.000169697
7 *128:B *128:D 9.58126e-05
8 *128:B *62:18 1.98839e-05
9 *128:B *66:10 4.46186e-06
10 *48:10 *65:14 0.000143375
11 *48:10 *66:10 9.24299e-05
12 *124:B *128:B 0
13 *126:C *126:D_N 1.22034e-05
14 *126:C *128:B 8.70326e-05
15 *126:C *48:10 5.12785e-05
16 *131:A2_N *126:D_N 5.49489e-05
17 *145:B1 *128:B 0.000262806
*RES
1 *152:X *48:10 23.4607 
2 *48:10 *126:D_N 14.3357 
3 *48:10 *128:B 20.1393 
*END

*D_NET *49 0.00319329
*CONN
*I *129:C I *D sky130_fd_sc_hd__and3b_1
*I *126:B I *D sky130_fd_sc_hd__or4b_1
*I *132:B I *D sky130_fd_sc_hd__and4_1
*I *153:X O *D sky130_fd_sc_hd__buf_1
*CAP
1 *129:C 0
2 *126:B 0.000185554
3 *132:B 0.000325157
4 *153:X 0.000292566
5 *49:12 0.000803276
6 *126:B *126:A 4.85049e-06
7 *126:B *128:C 3.4846e-06
8 *126:B *51:26 0.00015129
9 *126:B *66:10 3.27268e-05
10 *132:B *125:A 9.87617e-05
11 *132:B *132:C 0.00013266
12 *132:B *50:38 9.71197e-05
13 *132:B *52:19 4.43046e-05
14 *49:12 *130:A 5.33005e-05
15 *49:12 *130:B 0.000122101
16 *49:12 *50:12 0.000109082
17 *49:12 *50:23 3.17148e-05
18 *129:B *126:B 4.0342e-06
19 *129:B *132:B 0
20 *129:B *49:12 5.40173e-05
21 *131:A2_N *126:B 0.000223762
22 *131:A2_N *132:B 0.000125724
23 *131:B2 *132:B 5.24274e-05
24 *131:B2 *49:12 5.52238e-05
25 *147:A *132:B 0.000147474
26 *26:12 *126:B 3.48766e-05
27 *28:26 *132:B 0
28 *29:14 *132:B 7.80714e-06
*RES
1 *153:X *49:12 24.3714 
2 *49:12 *132:B 25.6036 
3 *49:12 *126:B 22.7643 
4 *49:12 *129:C 9.3 
*END

*D_NET *50 0.00298186
*CONN
*I *132:A I *D sky130_fd_sc_hd__and4_1
*I *125:A I *D sky130_fd_sc_hd__or3_1
*I *144:A I *D sky130_fd_sc_hd__and3_1
*I *130:A I *D sky130_fd_sc_hd__xnor2_1
*I *154:X O *D sky130_fd_sc_hd__buf_1
*CAP
1 *132:A 0
2 *125:A 0.000179652
3 *144:A 0
4 *130:A 2.3245e-05
5 *154:X 0.000192179
6 *50:38 0.000494718
7 *50:23 0.000389486
8 *50:12 0.000289844
9 *125:A *128:C 7.81404e-05
10 *125:A *132:C 1.59373e-05
11 *125:A *132:D 0.000159674
12 *125:A *51:26 1.00332e-05
13 *125:A *62:18 1.89703e-05
14 *129:B *130:A 3.69047e-06
15 *129:B *50:23 0.000150625
16 *129:B *50:38 0.000169405
17 *132:B *125:A 9.87617e-05
18 *132:B *50:38 9.71197e-05
19 *145:C1 *125:A 9.71197e-05
20 *145:C1 *50:38 0.000294906
21 *148:A3 *50:38 1.07719e-05
22 *150:A *50:38 7.43578e-06
23 *28:26 *125:A 6.05161e-06
24 *49:12 *130:A 5.33005e-05
25 *49:12 *50:12 0.000109082
26 *49:12 *50:23 3.17148e-05
*RES
1 *154:X *50:12 22.0143 
2 *50:12 *130:A 9.83571 
3 *50:12 *50:23 6.44643 
4 *50:23 *144:A 13.8 
5 *50:23 *50:38 11.4107 
6 *50:38 *125:A 22.7286 
7 *50:38 *132:A 9.3 
*END

*D_NET *51 0.0027784
*CONN
*I *130:B I *D sky130_fd_sc_hd__xnor2_1
*I *132:D I *D sky130_fd_sc_hd__and4_1
*I *125:C I *D sky130_fd_sc_hd__or3_1
*I *155:X O *D sky130_fd_sc_hd__buf_1
*CAP
1 *130:B 0.000125977
2 *132:D 0.000116201
3 *125:C 0
4 *155:X 0.000300786
5 *51:26 0.000448789
6 *51:10 0.000759351
7 *132:D *128:C 3.43988e-06
8 *132:D *132:C 0
9 *51:10 *52:8 2.49341e-05
10 *51:26 *128:C 1.6116e-05
11 *51:26 *129:A_N 4.82865e-05
12 *51:26 *52:8 5.46335e-05
13 *51:26 *52:19 5.66157e-05
14 *125:A *132:D 0.000159674
15 *125:A *51:26 1.00332e-05
16 *126:B *51:26 0.00015129
17 *129:B *130:B 9.47712e-05
18 *145:B1 *132:D 0
19 *145:C1 *132:D 6.85338e-05
20 *145:C1 *51:26 5.37741e-06
21 *26:12 *51:26 0.000130038
22 *28:26 *132:D 8.6229e-06
23 *29:14 *130:B 7.28277e-05
24 *29:14 *51:26 0
25 *49:12 *130:B 0.000122101
*RES
1 *155:X *51:10 17.5589 
2 *51:10 *51:26 15.5268 
3 *51:26 *125:C 13.8 
4 *51:26 *132:D 16.6571 
5 *51:10 *130:B 17.5232 
*END

*D_NET *52 0.00214532
*CONN
*I *132:C I *D sky130_fd_sc_hd__and4_1
*I *125:B I *D sky130_fd_sc_hd__or3_1
*I *129:A_N I *D sky130_fd_sc_hd__and3b_1
*I *156:X O *D sky130_fd_sc_hd__buf_1
*CAP
1 *132:C 0.000170883
2 *125:B 0.000131112
3 *129:A_N 4.18285e-05
4 *156:X 5.86922e-05
5 *52:19 0.000417213
6 *52:8 0.000215739
7 *132:C *62:18 5.65955e-05
8 *125:A *132:C 1.59373e-05
9 *131:A2_N *52:19 0.000125724
10 *132:B *132:C 0.00013266
11 *132:B *52:19 4.43046e-05
12 *132:D *132:C 0
13 *145:C1 *132:C 3.00989e-05
14 *145:C1 *52:19 2.00659e-05
15 *147:A *125:B 0.000181381
16 *26:12 *129:A_N 5.49489e-05
17 *26:12 *52:8 3.17148e-05
18 *26:12 *52:19 0.000231948
19 *51:10 *52:8 2.49341e-05
20 *51:26 *129:A_N 4.82865e-05