*SPEF "ieee 1481-1999"
*DESIGN "ADC"
*DATE "11:11:11 Fri 11 11, 1111"
*VENDOR "OpenRCX"
*PROGRAM "Parallel Extraction"
*VERSION "1.0"
*DESIGN_FLOW "NAME_SCOPE LOCAL" "PIN_CAP NONE"
*DIVIDER /
*DELIMITER :
*BUS_DELIMITER []
*T_UNIT 1 NS
*C_UNIT 1 PF
*R_UNIT 1 OHM
*L_UNIT 1 HENRY

*NAME_MAP
*3 b[0]
*4 b[1]
*5 b[2]
*6 b[3]
*7 p[0]
*8 p[10]
*9 p[11]
*10 p[12]
*11 p[13]
*12 p[14]
*13 p[1]
*14 p[2]
*15 p[3]
*16 p[4]
*17 p[5]
*18 p[6]
*19 p[7]
*20 p[8]
*21 p[9]
*22 _00_
*23 _01_
*24 _02_
*25 _03_
*26 _04_
*27 _05_
*28 _06_
*29 _07_
*30 _08_
*31 _09_
*32 _10_
*33 _11_
*34 _12_
*35 _13_
*36 _14_
*37 _15_
*38 _16_
*39 _17_
*40 _18_
*41 _19_
*42 _20_
*43 _21_
*44 _22_
*45 _23_
*46 _24_
*47 _25_
*48 net1
*49 net10
*50 net11
*51 net12
*52 net13
*53 net14
*54 net15
*55 net16
*56 net17
*57 net18
*58 net19
*59 net2
*60 net3
*61 net4
*62 net5
*63 net6
*64 net7
*65 net8
*66 net9
*67 FILLER_0_0_13
*68 FILLER_0_0_20
*69 FILLER_0_0_27
*70 FILLER_0_0_29
*71 FILLER_0_0_34
*72 FILLER_0_0_41
*73 FILLER_0_0_48
*74 FILLER_0_0_6
*75 FILLER_0_1_12
*76 FILLER_0_1_20
*77 FILLER_0_1_43
*78 FILLER_0_2_13
*79 FILLER_0_2_22
*80 FILLER_0_2_3
*81 FILLER_0_2_42
*82 FILLER_0_2_48
*83 FILLER_0_3_13
*84 FILLER_0_3_24
*85 FILLER_0_3_32
*86 FILLER_0_3_37
*87 FILLER_0_3_41
*88 FILLER_0_3_45
*89 FILLER_0_4_42
*90 FILLER_0_5_3
*91 FILLER_0_5_45
*92 FILLER_0_6_25
*93 FILLER_0_6_36
*94 FILLER_0_6_42
*95 FILLER_0_6_6
*96 FILLER_0_7_15
*97 FILLER_0_7_26
*98 FILLER_0_7_32
*99 FILLER_0_7_44
*100 FILLER_0_7_48
*101 PHY_EDGE_ROW_0_Left_8
*102 PHY_EDGE_ROW_0_Right_0
*103 PHY_EDGE_ROW_1_Left_9
*104 PHY_EDGE_ROW_1_Right_1
*105 PHY_EDGE_ROW_2_Left_10
*106 PHY_EDGE_ROW_2_Right_2
*107 PHY_EDGE_ROW_3_Left_11
*108 PHY_EDGE_ROW_3_Right_3
*109 PHY_EDGE_ROW_4_Left_12
*110 PHY_EDGE_ROW_4_Right_4
*111 PHY_EDGE_ROW_5_Left_13
*112 PHY_EDGE_ROW_5_Right_5
*113 PHY_EDGE_ROW_6_Left_14
*114 PHY_EDGE_ROW_6_Right_6
*115 PHY_EDGE_ROW_7_Left_15
*116 PHY_EDGE_ROW_7_Right_7
*117 TAP_TAPCELL_ROW_0_16
*118 TAP_TAPCELL_ROW_2_17
*119 TAP_TAPCELL_ROW_4_18
*120 TAP_TAPCELL_ROW_6_19
*121 TAP_TAPCELL_ROW_7_20
*122 _26_
*123 _27_
*124 _28_
*125 _29_
*126 _30_
*127 _31_
*128 _32_
*129 _33_
*130 _34_
*131 _35_
*132 _36_
*133 _37_
*134 _38_
*135 _39_
*136 _40_
*137 _41_
*138 _42_
*139 _43_
*140 _44_
*141 _45_
*142 _46_
*143 _47_
*144 _48_
*145 _49_
*146 _50_
*147 _51_
*148 _52_
*149 _53_
*150 _54_
*151 _55_
*152 input1
*153 input10
*154 input11
*155 input12
*156 input13
*157 input14
*158 input15
*159 input2
*160 input3
*161 input4
*162 input5
*163 input6
*164 input7
*165 input8
*166 input9
*167 output16
*168 output17
*169 output18
*170 output19

*PORTS
b[0] O
b[1] O
b[2] O
b[3] O
p[0] I
p[10] I
p[11] I
p[12] I
p[13] I
p[14] I
p[1] I
p[2] I
p[3] I
p[4] I
p[5] I
p[6] I
p[7] I
p[8] I
p[9] I

*D_NET *3 0.000461504
*CONN
*P b[0] O
*I *167:X O *D sky130_fd_sc_hd__clkbuf_4
*CAP
1 b[0] 0.000180143
2 *167:X 0.000180143
3 b[0] b[2] 9.25475e-05
4 b[0] *167:A 8.66976e-06
*RES
1 *167:X b[0] 4.90503 
*END

*D_NET *4 0.000582987
*CONN
*P b[1] O
*I *168:X O *D sky130_fd_sc_hd__clkbuf_4
*CAP
1 b[1] 0.000230077
2 *168:X 0.000230077
3 b[1] *159:A 0.000122834
*RES
1 *168:X b[1] 6.73043 
*END

*D_NET *5 0.000450826
*CONN
*P b[2] O
*I *169:X O *D sky130_fd_sc_hd__clkbuf_4
*CAP
1 b[2] 0.000179139
2 *169:X 0.000179139
3 b[2] *134:B 0
4 b[0] b[2] 9.25475e-05
*RES
1 *169:X b[2] 4.90503 
*END

*D_NET *6 0.00125241
*CONN
*P b[3] O
*I *170:X O *D sky130_fd_sc_hd__clkbuf_4
*CAP
1 b[3] 0.000384585
2 *170:X 0.000384585
3 b[3] *157:A 0.000143266
4 b[3] *158:A 0
5 b[3] *160:A 3.45293e-05
6 b[3] *162:A 8.28724e-05
7 b[3] *170:A 2.46007e-05
8 b[3] *59:12 9.65691e-05
9 b[3] *59:29 0.000101402
*RES
1 *170:X b[3] 9.49503 
*END

*D_NET *7 0.000763257
*CONN
*P p[0] I
*I *152:A I *D sky130_fd_sc_hd__clkbuf_1
*CAP
1 p[0] 0.000381629
2 *152:A 0.000381629
3 *152:A *164:A 0
*RES
1 p[0] *152:A 10.455 
*END

*D_NET *8 0.000958042
*CONN
*P p[10] I
*I *159:A I *D sky130_fd_sc_hd__buf_1
*CAP
1 p[10] 0.000339858
2 *159:A 0.000339858
3 *159:A *162:A 4.41979e-05
4 *159:A *168:A 8.8266e-05
5 *159:A *59:10 2.30292e-05
6 b[1] *159:A 0.000122834
*RES
1 p[10] *159:A 9.6987 
*END

*D_NET *9 0.000835642
*CONN
*P p[11] I
*I *160:A I *D sky130_fd_sc_hd__buf_1
*CAP
1 p[11] 0.000383292
2 *160:A 0.000383292
3 *160:A *158:A 3.45293e-05
4 *160:A *59:12 0
5 b[3] *160:A 3.45293e-05
*RES
1 p[11] *160:A 9.70043 
*END

*D_NET *10 0.0013386
*CONN
*P p[12] I
*I *161:A I *D sky130_fd_sc_hd__clkbuf_1
*CAP
1 p[12] 0.000604178
2 *161:A 0.000604178
3 *161:A *137:A 2.10214e-05
4 *161:A *137:B 4.82863e-05
5 *161:A *63:10 6.09409e-05
*RES
1 p[12] *161:A 14.325 
*END

*D_NET *11 0.000422424
*CONN
*P p[13] I
*I *162:A I *D sky130_fd_sc_hd__dlymetal6s2s_1
*CAP
1 p[13] 0.000144361
2 *162:A 0.000144361
3 *162:A *59:12 6.63219e-06
4 b[3] *162:A 8.28724e-05
5 *159:A *162:A 4.41979e-05
*RES
1 p[13] *162:A 4.84677 
*END

*D_NET *12 0.00110404
*CONN
*P p[14] I
*I *163:A I *D sky130_fd_sc_hd__buf_1
*CAP
1 p[14] 0.00040257
2 *163:A 0.00040257
3 *163:A *157:A 4.41979e-05
4 *163:A *158:A 0.000254701
*RES
1 p[14] *163:A 10.3137 
*END

*D_NET *13 0.000763257
*CONN
*P p[1] I
*I *164:A I *D sky130_fd_sc_hd__buf_1
*CAP
1 p[1] 0.000381629
2 *164:A 0.000381629
3 *164:A *165:A 0
4 *152:A *164:A 0
*RES
1 p[1] *164:A 10.455 
*END

*D_NET *14 0.000765754
*CONN
*P p[2] I
*I *165:A I *D sky130_fd_sc_hd__buf_1
*CAP
1 p[2] 0.000382877
2 *165:A 0.000382877
3 *165:A *166:A 0
4 *164:A *165:A 0
*RES
1 p[2] *165:A 10.455 
*END

*D_NET *15 0.00076825
*CONN
*P p[3] I
*I *166:A I *D sky130_fd_sc_hd__clkbuf_1
*CAP
1 p[3] 0.000384125
2 *166:A 0.000384125
3 *166:A *156:A 0
4 *165:A *166:A 0
*RES
1 p[3] *166:A 10.455 
*END

*D_NET *16 0.00116197
*CONN
*P p[4] I
*I *153:A I *D sky130_fd_sc_hd__buf_1
*CAP
1 p[4] 0.000536851
2 *153:A 0.000536851
3 *153:A *154:A 8.8266e-05
*RES
1 p[4] *153:A 12.525 
*END

*D_NET *17 0.00101065
*CONN
*P p[5] I
*I *154:A I *D sky130_fd_sc_hd__buf_1
*CAP
1 p[5] 0.000461194
2 *154:A 0.000461194
3 *154:A *155:A 0
4 *153:A *154:A 8.8266e-05
*RES
1 p[5] *154:A 12.015 
*END

*D_NET *18 0.000763257
*CONN
*P p[6] I
*I *155:A I *D sky130_fd_sc_hd__buf_1
*CAP
1 p[6] 0.000381629
2 *155:A 0.000381629
3 *155:A *156:A 0
4 *154:A *155:A 0
*RES
1 p[6] *155:A 10.455 
*END

*D_NET *19 0.000842588
*CONN
*P p[7] I
*I *156:A I *D sky130_fd_sc_hd__buf_1
*CAP
1 p[7] 0.000421294
2 *156:A 0.000421294
3 *155:A *156:A 0
4 *166:A *156:A 0
*RES
1 p[7] *156:A 11.145 
*END

*D_NET *20 0.00130299
*CONN
*P p[8] I
*I *157:A I *D sky130_fd_sc_hd__buf_1
*CAP
1 p[8] 0.000555236
2 *157:A 0.000555236
3 *157:A *158:A 5.05066e-06
4 *157:A *170:A 0
5 b[3] *157:A 0.000143266
6 *163:A *157:A 4.41979e-05
*RES
1 p[8] *157:A 11.7318 
*END

*D_NET *21 0.00102482
*CONN
*P p[9] I
*I *158:A I *D sky130_fd_sc_hd__buf_1
*CAP
1 p[9] 0.000340289
2 *158:A 0.000340289
3 *158:A *63:10 4.99619e-05
4 b[3] *158:A 0
5 *157:A *158:A 5.05066e-06
6 *160:A *158:A 3.45293e-05
7 *163:A *158:A 0.000254701
*RES
1 p[9] *158:A 9.27697 
*END

*D_NET *22 0.00147872
*CONN
*I *139:A_N I *D sky130_fd_sc_hd__and4b_1
*I *136:D I *D sky130_fd_sc_hd__nor4_1
*I *124:A I *D sky130_fd_sc_hd__nor2_1
*I *122:X O *D sky130_fd_sc_hd__or3_1
*CAP
1 *139:A_N 0
2 *136:D 0.000107111
3 *124:A 5.05391e-05
4 *122:X 0
5 *22:25 0.000260652
6 *22:4 0.00020408
7 *124:A *145:B1 1.09221e-05
8 *124:A *151:C1 6.48689e-05
9 *124:A *42:16 6.54828e-05
10 *136:D *133:D 0
11 *136:D *137:A 4.46495e-05
12 *136:D *139:C 3.85753e-05
13 *136:D *141:C1 4.77757e-05
14 *136:D *151:A1 2.10465e-05
15 *136:D *33:14 9.35312e-06
16 *136:D *36:10 4.96849e-05
17 *22:25 *134:D 7.14699e-05
18 *22:25 *140:B1 0
19 *22:25 *141:C1 3.73067e-05
20 *22:25 *151:C1 1.06688e-05
21 *22:25 *32:16 8.90199e-05
22 *22:25 *33:14 4.77719e-05
23 *22:25 *37:20 9.14049e-05
24 *22:25 *44:12 0.000156333
*RES
1 *122:X *22:4 1.6 
2 *22:4 *124:A 2.92 
3 *22:4 *22:25 7.765 
4 *22:25 *136:D 7.94 
5 *22:25 *139:A_N 1.6 
*END

*D_NET *23 0.00124989
*CONN
*I *124:B I *D sky130_fd_sc_hd__nor2_1
*I *123:X O *D sky130_fd_sc_hd__or4_1
*CAP
1 *124:B 0.000485957
2 *123:X 0.000485957
3 *124:B *123:B 0
4 *124:B *128:A 9.37731e-05
5 *124:B *128:B 0
6 *124:B *128:C 7.92607e-05
7 *124:B *142:A 6.58423e-05
8 *124:B *145:A2 6.17113e-06
9 *124:B *145:B1 3.29291e-05
*RES
1 *123:X *124:B 13.695 
*END

*D_NET *24 0.0045085
*CONN
*I *144:B I *D sky130_fd_sc_hd__and3_1
*I *141:A1 I *D sky130_fd_sc_hd__a221o_1
*I *148:A1 I *D sky130_fd_sc_hd__a32o_1
*I *145:A2 I *D sky130_fd_sc_hd__a311o_1
*I *124:Y O *D sky130_fd_sc_hd__nor2_1
*CAP
1 *144:B 0.00025806
2 *141:A1 0.000133266
3 *148:A1 0
4 *145:A2 0.000412105
5 *124:Y 0
6 *24:23 0.000153357
7 *24:21 0.000575057
8 *24:4 0.00070901
9 *141:A1 *122:A 7.79767e-06
10 *141:A1 *141:A2 0.000178537
11 *141:A1 *141:B1 8.7152e-06
12 *141:A1 *148:B1 6.48536e-05
13 *141:A1 *151:C1 1.56428e-05
14 *141:A1 *28:26 0
15 *141:A1 *28:37 1.08758e-05
16 *141:A1 *44:12 7.06865e-05
17 *144:B *129:B 0.000249921
18 *144:B *149:A 0.000183731
19 *144:B *28:37 0.000230429
20 *144:B *43:10 7.06865e-05
21 *145:A2 *123:B 6.18754e-05
22 *145:A2 *128:A 0.000175713
23 *145:A2 *128:D 0.00022448
24 *145:A2 *140:A3 2.50702e-05
25 *145:A2 *142:A 2.20014e-05
26 *145:A2 *145:A1 8.52883e-05
27 *145:A2 *145:A3 0.00012182
28 *145:A2 *151:B1 1.52352e-05
29 *145:A2 *151:C1 8.46717e-05
30 *145:A2 *170:A 5.83121e-06
31 *145:A2 *37:20 3.20715e-05
32 *24:21 *122:A 0.00012208
33 *24:21 *148:B1 1.35171e-05
34 *24:21 *151:C1 0.00017673
35 *24:23 *122:A 3.21081e-06
36 *124:B *145:A2 6.17113e-06
*RES
1 *124:Y *24:4 1.6 
2 *24:4 *145:A2 13.88 
3 *24:4 *24:21 3.9 
4 *24:21 *24:23 0.36 
5 *24:23 *148:A1 1.6 
6 *24:23 *141:A1 9.47 
7 *24:21 *144:B 11.03 
*END

*D_NET *25 0.00251007
*CONN
*I *147:A I *D sky130_fd_sc_hd__inv_2
*I *126:C I *D sky130_fd_sc_hd__or4b_1
*I *125:X O *D sky130_fd_sc_hd__or3_1
*CAP
1 *147:A 0.000250679
2 *126:C 0.000455951
3 *125:X 0
4 *25:4 0.000706629
5 *126:C *126:A 3.64998e-06
6 *126:C *126:D_N 1.27853e-05
7 *126:C *128:A 0
8 *126:C *128:B 8.64248e-05
9 *126:C *131:A2_N 1.55545e-05
10 *126:C *142:A 0.000119866
11 *126:C *48:10 5.02868e-05
12 *126:C *64:12 0
13 *126:C *64:21 0
14 *147:A *125:B 0.000158175
15 *147:A *131:A1_N 4.66108e-05
16 *147:A *132:B 0.000136182
17 *147:A *141:A2 0.000213565
18 *147:A *142:A 0.000253714
*RES
1 *125:X *25:4 1.6 
2 *25:4 *126:C 12.005 
3 *25:4 *147:A 11.495 
*END

*D_NET *26 0.00262254
*CONN
*I *131:A1_N I *D sky130_fd_sc_hd__a2bb2o_1
*I *142:A I *D sky130_fd_sc_hd__inv_2
*I *126:X O *D sky130_fd_sc_hd__or4b_1
*CAP
1 *131:A1_N 1.56251e-05
2 *142:A 0.000336777
3 *126:X 0.00015266
4 *26:12 0.000505062
5 *131:A1_N *141:A2 1.19928e-05
6 *142:A *123:B 2.75229e-05
7 *142:A *141:A2 1.19928e-05
8 *142:A *145:A1 1.52352e-05
9 *142:A *145:A3 0.000298829
10 *142:A *145:B1 2.01565e-05
11 *142:A *145:C1 0.000241316
12 *26:12 *126:B 3.6127e-05
13 *26:12 *129:A_N 4.77719e-05
14 *26:12 *145:C1 2.97746e-05
15 *26:12 *51:26 0.000120134
16 *26:12 *52:8 2.92496e-05
17 *26:12 *52:19 0.000214282
18 *124:B *142:A 6.58423e-05
19 *126:C *142:A 0.000119866
20 *145:A2 *142:A 2.20014e-05
21 *147:A *131:A1_N 4.66108e-05
22 *147:A *142:A 0.000253714
*RES
1 *126:X *26:12 9.305 
2 *26:12 *142:A 10.45 
3 *26:12 *131:A1_N 2.05 
*END

*D_NET *27 0.0014636
*CONN
*I *131:A2_N I *D sky130_fd_sc_hd__a2bb2o_1
*I *127:X O *D sky130_fd_sc_hd__xor2_1
*CAP
1 *131:A2_N 0.000461744
2 *127:X 0.000461744
3 *131:A2_N *126:A 4.8854e-05
4 *131:A2_N *126:B 0.000195616
5 *131:A2_N *126:D_N 4.77719e-05
6 *131:A2_N *132:B 0.000116158
7 *131:A2_N *168:A 0
8 *131:A2_N *52:19 0.000116158
9 *126:C *131:A2_N 1.55545e-05
*RES
1 *127:X *131:A2_N 14.145 
*END

*D_NET *28 0.00700199
*CONN
*I *137:A I *D sky130_fd_sc_hd__and2_1
*I *139:B I *D sky130_fd_sc_hd__and4b_1
*I *134:B I *D sky130_fd_sc_hd__and4_1
*I *129:B I *D sky130_fd_sc_hd__and3b_1
*I *148:A2 I *D sky130_fd_sc_hd__a32o_1
*I *128:X O *D sky130_fd_sc_hd__and4_1
*CAP
1 *137:A 0.000275174
2 *139:B 4.73959e-05
3 *134:B 0.000158438
4 *129:B 0.000453713
5 *148:A2 0
6 *128:X 0.000453581
7 *28:71 0.000829976
8 *28:37 0.000721213
9 *28:28 0.000109061
10 *28:26 0.000960987
11 *129:B *126:B 4.05674e-06
12 *129:B *130:A 3.64998e-06
13 *129:B *130:B 8.96017e-05
14 *129:B *131:B2 0
15 *129:B *132:B 0
16 *129:B *149:A 1.07797e-05
17 *129:B *150:A 7.4027e-05
18 *129:B *169:A 0
19 *129:B *29:14 4.99619e-05
20 *129:B *49:12 5.30079e-05
21 *129:B *50:23 0.000139245
22 *129:B *50:38 0.000156842
23 *134:B *134:A 4.55864e-06
24 *134:B *134:C 8.7152e-06
25 *134:B *141:A2 0
26 *134:B *149:A 1.26626e-05
27 *134:B *167:A 0
28 *137:A *133:D 0
29 *137:A *137:B 6.98458e-05
30 *137:A *139:C 2.79071e-05
31 *137:A *33:14 0.0002212
32 *137:A *37:10 7.40213e-05
33 *137:A *42:16 3.1562e-06
34 *137:A *54:10 0
35 *137:A *63:10 0.00012182
36 *139:B *139:C 0.000119866
37 *139:B *141:C1 0.000158543
38 *28:26 *125:A 5.83121e-06
39 *28:26 *132:B 0
40 *28:26 *132:D 7.9642e-06
41 *28:26 *141:A2 1.17701e-05
42 *28:26 *145:B1 8.66107e-06
43 *28:26 *148:A3 8.72849e-05
44 *28:26 *148:B1 3.82352e-06
45 *28:26 *62:18 0.000134713
46 *28:37 *149:B 2.51519e-05
47 *28:37 *149:C 4.99619e-05
48 *28:71 *122:B 0.000151216
49 *28:71 *122:C 3.41975e-05
50 *28:71 *134:C 5.31422e-05
51 *28:71 *137:B 4.36573e-06
52 *28:71 *141:C1 0.000216815
53 *28:71 *148:A3 1.7635e-05
54 *28:71 *32:16 0.000216382
55 *28:71 *62:18 3.16707e-06
56 b[2] *134:B 0
57 *136:D *137:A 4.46495e-05
58 *141:A1 *28:26 0
59 *141:A1 *28:37 1.08758e-05
60 *144:B *129:B 0.000249921
61 *144:B *28:37 0.000230429
62 *161:A *137:A 2.10214e-05
*RES
1 *128:X *28:26 9.3976 
2 *28:26 *28:28 2 
3 *28:28 *148:A2 1.6 
4 *28:28 *28:37 4.52 
5 *28:37 *129:B 12.6 
6 *28:37 *134:B 6.255 
7 *28:26 *28:71 8.63587 
8 *28:71 *139:B 3.085 
9 *28:71 *137:A 15.315 
*END

*D_NET *29 0.000655758
*CONN
*I *144:C I *D sky130_fd_sc_hd__and3_1
*I *131:B1 I *D sky130_fd_sc_hd__a2bb2o_1
*I *129:X O *D sky130_fd_sc_hd__and3b_1
*CAP
1 *144:C 6.73284e-05
2 *131:B1 1.30893e-05
3 *129:X 0.000126377
4 *29:14 0.000206795
5 *131:B1 *141:A2 1.52563e-05
6 *144:C *43:10 1.7386e-05
7 *29:14 *130:B 6.53798e-05
8 *29:14 *131:B2 7.23602e-05
9 *29:14 *132:B 8.09021e-06
10 *29:14 *141:A2 1.37328e-05
11 *29:14 *51:26 0
12 *129:B *29:14 4.99619e-05
*RES
1 *129:X *29:14 8.3 
2 *29:14 *131:B1 1.96 
3 *29:14 *144:C 2.62 
*END

*D_NET *30 0.000330525
*CONN
*I *131:B2 I *D sky130_fd_sc_hd__a2bb2o_1
*I *130:Y O *D sky130_fd_sc_hd__xnor2_1
*CAP
1 *131:B2 7.92813e-05
2 *130:Y 7.92813e-05
3 *131:B2 *132:B 5.13155e-05
4 *131:B2 *49:12 4.82863e-05
5 *129:B *131:B2 0
6 *29:14 *131:B2 7.23602e-05
*RES
1 *130:Y *131:B2 8.775 
*END

*D_NET *31 0.00165882
*CONN
*I *141:A2 I *D sky130_fd_sc_hd__a221o_1
*I *131:X O *D sky130_fd_sc_hd__a2bb2o_1
*CAP
1 *141:A2 0.000466897
2 *131:X 0.000466897
3 *141:A2 *134:D 1.2818e-05
4 *141:A2 *141:B2 1.64133e-05
5 *141:A2 *145:C1 1.08758e-05
6 *141:A2 *148:A3 0.000113797
7 *141:A2 *148:B1 4.49439e-06
8 *141:A2 *149:A 8.30909e-05
9 *141:A2 *43:10 2.66935e-05
10 *131:A1_N *141:A2 1.19928e-05
11 *131:B1 *141:A2 1.52563e-05
12 *134:B *141:A2 0
13 *141:A1 *141:A2 0.000178537
14 *142:A *141:A2 1.19928e-05
15 *147:A *141:A2 0.000213565
16 *28:26 *141:A2 1.17701e-05
17 *29:14 *141:A2 1.37328e-05
*RES
1 *131:X *141:A2 16.8037 
*END

*D_NET *32 0.00416486
*CONN
*I *137:B I *D sky130_fd_sc_hd__and2_1
*I *134:C I *D sky130_fd_sc_hd__and4_1
*I *139:C I *D sky130_fd_sc_hd__and4b_1
*I *132:X O *D sky130_fd_sc_hd__and4_1
*CAP
1 *137:B 0.00020905
2 *134:C 0.000676826
3 *139:C 0.000358233
4 *132:X 0.000266888
5 *32:18 0.00103506
6 *32:16 0.000475938
7 *134:C *134:A 3.16057e-06
8 *134:C *167:A 6.15576e-06
9 *137:B *122:B 7.67621e-06
10 *137:B *37:10 0.000249914
11 *137:B *37:20 3.96263e-05
12 *139:C *128:C 0
13 *139:C *141:C1 2.16833e-05
14 *139:C *33:14 4.36573e-06
15 *32:16 *145:B1 9.39127e-05
16 *32:16 *37:20 4.02646e-05
17 *32:16 *62:18 0
18 *134:B *134:C 8.7152e-06
19 *136:D *139:C 3.85753e-05
20 *137:A *137:B 6.98458e-05
21 *137:A *139:C 2.79071e-05
22 *139:B *139:C 0.000119866
23 *161:A *137:B 4.82863e-05
24 *22:25 *32:16 8.90199e-05
25 *28:71 *134:C 5.31422e-05
26 *28:71 *137:B 4.36573e-06
27 *28:71 *32:16 0.000216382
*RES
1 *132:X *32:16 8.8575 
2 *32:16 *32:18 0.5 
3 *32:18 *139:C 6.40183 
4 *32:18 *134:C 5.36103 
5 *32:16 *137:B 8.1075 
*END

*D_NET *33 0.00276392
*CONN
*I *134:D I *D sky130_fd_sc_hd__and4_1
*I *146:D I *D sky130_fd_sc_hd__and4bb_1
*I *133:X O *D sky130_fd_sc_hd__and4_1
*CAP
1 *134:D 0.000256701
2 *146:D 0
3 *133:X 0.000212244
4 *33:14 0.000468946
5 *134:D *141:B2 0.000143988
6 *134:D *141:C1 0.000302103
7 *134:D *146:A_N 0.000121019
8 *134:D *167:A 0.000118294
9 *134:D *34:14 0.0001167
10 *134:D *44:12 0.000110124
11 *33:14 *136:B 8.57024e-05
12 *33:14 *136:C 0.00012349
13 *33:14 *141:C1 4.66108e-05
14 *33:14 *143:B1 0.000116172
15 *33:14 *37:10 4.52728e-05
16 *33:14 *42:16 0.000129575
17 *136:D *33:14 9.35312e-06
18 *137:A *33:14 0.0002212
19 *139:C *33:14 4.36573e-06
20 *141:A2 *134:D 1.2818e-05
21 *22:25 *134:D 7.14699e-05
22 *22:25 *33:14 4.77719e-05
*RES
1 *133:X *33:14 11.57 
2 *33:14 *146:D 1.6 
3 *33:14 *134:D 8.965 
*END

*D_NET *34 0.00255809
*CONN
*I *143:A2 I *D sky130_fd_sc_hd__a21o_1
*I *141:B1 I *D sky130_fd_sc_hd__a221o_1
*I *148:B1 I *D sky130_fd_sc_hd__a32o_1
*I *134:X O *D sky130_fd_sc_hd__and4_1
*CAP
1 *143:A2 0.000200162
2 *141:B1 3.59112e-05
3 *148:B1 0.00012912
4 *134:X 0.000310418
5 *34:16 0.000186678
6 *34:14 0.000532226
7 *143:A2 *135:A 9.48971e-05
8 *143:A2 *143:A1 0.000267056
9 *143:A2 *62:55 6.28498e-05
10 *143:A2 *63:12 1.07797e-05
11 *148:B1 *148:A3 3.59531e-06
12 *148:B1 *151:C1 9.4988e-06
13 *148:B1 *44:12 7.06865e-05
14 *148:B1 *62:18 2.99518e-06
15 *148:B1 *62:42 0.000113257
16 *148:B1 *62:55 6.08733e-05
17 *34:14 *141:B2 0.00019522
18 *34:14 *167:A 2.66586e-05
19 *34:16 *141:B2 0
20 *34:16 *62:55 3.31051e-05
21 *134:D *34:14 0.0001167
22 *141:A1 *141:B1 8.7152e-06
23 *141:A1 *148:B1 6.48536e-05
24 *141:A2 *148:B1 4.49439e-06
25 *24:21 *148:B1 1.35171e-05
26 *28:26 *148:B1 3.82352e-06
*RES
1 *134:X *34:14 8.67 
2 *34:14 *34:16 0.4875 
3 *34:16 *148:B1 6.78 
4 *34:16 *141:B1 4.2825 
5 *34:14 *143:A2 7.95 
*END

*D_NET *35 0.000991392
*CONN
*I *141:B2 I *D sky130_fd_sc_hd__a221o_1
*I *135:Y O *D sky130_fd_sc_hd__xnor2_1
*CAP
1 *141:B2 0.000262992
2 *135:Y 0.000262992
3 *141:B2 *134:A 0.000109786
4 *134:D *141:B2 0.000143988
5 *141:A2 *141:B2 1.64133e-05
6 *34:14 *141:B2 0.00019522
7 *34:16 *141:B2 0
*RES
1 *135:Y *141:B2 12.27 
*END

*D_NET *36 0.00131585
*CONN
*I *151:A1 I *D sky130_fd_sc_hd__a211o_1
*I *140:A2 I *D sky130_fd_sc_hd__a32o_1
*I *136:Y O *D sky130_fd_sc_hd__nor4_1
*CAP
1 *151:A1 0.000153553
2 *140:A2 0.000163312
3 *136:Y 9.34087e-05
4 *36:10 0.000410274
5 *140:A2 *140:A1 8.49205e-05
6 *140:A2 *140:B1 6.20946e-05
7 *140:A2 *141:C1 0.000122337
8 *140:A2 *39:8 4.82863e-05
9 *151:A1 *123:B 0
10 *151:A1 *139:D 0
11 *151:A1 *140:B1 2.73299e-05
12 *36:10 *140:B1 7.21296e-06
13 *36:10 *143:B1 7.23847e-05
14 *136:D *151:A1 2.10465e-05
15 *136:D *36:10 4.96849e-05
*RES
1 *136:Y *36:10 5.3025 
2 *36:10 *140:A2 6.8025 
3 *36:10 *151:A1 6.1275 
*END

*D_NET *37 0.0027864
*CONN
*I *146:C I *D sky130_fd_sc_hd__and4bb_1
*I *151:A2 I *D sky130_fd_sc_hd__a211o_1
*I *140:A3 I *D sky130_fd_sc_hd__a32o_1
*I *137:X O *D sky130_fd_sc_hd__and2_1
*CAP
1 *146:C 0
2 *151:A2 2.66472e-05
3 *140:A3 0.000176147
4 *137:X 0.000142576
5 *37:20 0.000476072
6 *37:10 0.000415854
7 *140:A3 *138:B 4.66108e-05
8 *140:A3 *170:A 9.13951e-05
9 *140:A3 *53:21 0.000140912
10 *140:A3 *60:26 0.000139245
11 *151:A2 *151:B1 1.37328e-05
12 *151:A2 *42:16 0
13 *37:10 *42:16 6.28498e-05
14 *37:10 *63:10 8.33561e-05
15 *37:20 *145:B1 6.31042e-05
16 *37:20 *151:B1 0.000123955
17 *37:20 *42:16 0.000186293
18 *137:A *37:10 7.40213e-05
19 *137:B *37:10 0.000249914
20 *137:B *37:20 3.96263e-05
21 *145:A2 *140:A3 2.50702e-05
22 *145:A2 *37:20 3.20715e-05
23 *22:25 *37:20 9.14049e-05
24 *32:16 *37:20 4.02646e-05
25 *33:14 *37:10 4.52728e-05
*RES
1 *137:X *37:10 7.305 
2 *37:10 *37:20 7.73 
3 *37:20 *140:A3 9.77 
4 *37:20 *151:A2 2.215 
5 *37:10 *146:C 3.6 
*END

*D_NET *38 0.00045162
*CONN
*I *139:D I *D sky130_fd_sc_hd__and4b_1
*I *138:X O *D sky130_fd_sc_hd__and3b_1
*CAP
1 *139:D 7.75301e-05
2 *138:X 7.75301e-05
3 *139:D *123:B 8.53113e-06
4 *139:D *140:B1 9.82456e-05
5 *139:D *141:C1 7.36181e-05
6 *139:D *54:36 0.000116165
7 *151:A1 *139:D 0
*RES
1 *138:X *139:D 9.28125 
*END

*D_NET *39 0.00175026
*CONN
*I *143:B1 I *D sky130_fd_sc_hd__a21o_1
*I *140:B1 I *D sky130_fd_sc_hd__a32o_1
*I *139:X O *D sky130_fd_sc_hd__and4b_1
*CAP
1 *143:B1 0.000216362
2 *140:B1 0.000300376
3 *139:X 3.38751e-05
4 *39:8 0.000550613
5 *140:B1 *140:A1 1.91597e-05
6 *140:B1 *140:B2 1.12459e-05
7 *140:B1 *141:C1 1.91597e-05
8 *140:B1 *54:36 3.50033e-05
9 *143:B1 *133:B 0
10 *143:B1 *133:D 8.53113e-06
11 *143:B1 *136:B 1.82667e-05
12 *143:B1 *42:16 4.60061e-05
13 *143:B1 *54:23 3.12497e-05
14 *143:B1 *54:36 2.86817e-05
15 *139:D *140:B1 9.82456e-05
16 *140:A2 *140:B1 6.20946e-05
17 *140:A2 *39:8 4.82863e-05
18 *151:A1 *140:B1 2.73299e-05
19 *22:25 *140:B1 0
20 *33:14 *143:B1 0.000116172
21 *36:10 *140:B1 7.21296e-06
22 *36:10 *143:B1 7.23847e-05
*RES
1 *139:X *39:8 4.05 
2 *39:8 *140:B1 8.6775 
3 *39:8 *143:B1 8.265 
*END

*D_NET *40 0.00156637
*CONN
*I *141:C1 I *D sky130_fd_sc_hd__a221o_1
*I *140:X O *D sky130_fd_sc_hd__a32o_1
*CAP
1 *141:C1 0.000215918
2 *140:X 0.000215918
3 *141:C1 *146:B_N 8.85787e-05
4 *134:D *141:C1 0.000302103
5 *136:D *141:C1 4.77757e-05
6 *139:B *141:C1 0.000158543
7 *139:C *141:C1 2.16833e-05
8 *139:D *141:C1 7.36181e-05
9 *140:A2 *141:C1 0.000122337
10 *140:B1 *141:C1 1.91597e-05
11 *22:25 *141:C1 3.73067e-05
12 *28:71 *141:C1 0.000216815
13 *33:14 *141:C1 4.66108e-05
*RES
1 *140:X *141:C1 9.86 
*END

*D_NET *41 0.000944057
*CONN
*I *145:A3 I *D sky130_fd_sc_hd__a311o_1
*I *142:Y O *D sky130_fd_sc_hd__inv_2
*CAP
1 *145:A3 0.000261704
2 *142:Y 0.000261704
3 *145:A3 *145:A1 0
4 *142:A *145:A3 0.000298829
5 *145:A2 *145:A3 0.00012182
*RES
1 *142:Y *145:A3 7.82 
*END

*D_NET *42 0.0027814
*CONN
*I *145:B1 I *D sky130_fd_sc_hd__a311o_1
*I *151:B1 I *D sky130_fd_sc_hd__a211o_1
*I *143:X O *D sky130_fd_sc_hd__a21o_1
*CAP
1 *145:B1 0.000359823
2 *151:B1 3.295e-05
3 *143:X 0.00025683
4 *42:16 0.000649603
5 *145:B1 *128:B 0.000242551
6 *145:B1 *128:C 0.00019723
7 *145:B1 *132:D 0
8 *145:B1 *145:A1 5.12969e-06
9 *145:B1 *145:C1 8.35068e-05
10 *145:B1 *151:C1 5.12969e-06
11 *151:B1 *151:C1 5.70073e-05
12 *42:16 *151:C1 1.56651e-05
13 *124:A *145:B1 1.09221e-05
14 *124:A *42:16 6.54828e-05
15 *124:B *145:B1 3.29291e-05
16 *137:A *42:16 3.1562e-06
17 *142:A *145:B1 2.01565e-05
18 *143:B1 *42:16 4.60061e-05
19 *145:A2 *151:B1 1.52352e-05
20 *151:A2 *151:B1 1.37328e-05
21 *151:A2 *42:16 0
22 *28:26 *145:B1 8.66107e-06
23 *32:16 *145:B1 9.39127e-05
24 *33:14 *42:16 0.000129575
25 *37:10 *42:16 6.28498e-05
26 *37:20 *145:B1 6.31042e-05
27 *37:20 *151:B1 0.000123955
28 *37:20 *42:16 0.000186293
*RES
1 *143:X *42:16 10.715 
2 *42:16 *151:B1 3.1 
3 *42:16 *145:B1 12.695 
*END

*D_NET *43 0.00249632
*CONN
*I *149:A I *D sky130_fd_sc_hd__or3_1
*I *145:C1 I *D sky130_fd_sc_hd__a311o_1
*I *144:X O *D sky130_fd_sc_hd__and3_1
*CAP
1 *149:A 8.11078e-05
2 *145:C1 0.000481867
3 *144:X 6.65199e-05
4 *43:10 0.000629494
5 *145:C1 *125:A 8.49205e-05
6 *145:C1 *132:C 3.03465e-05
7 *145:C1 *132:D 6.82815e-05
8 *145:C1 *50:38 0.000257863
9 *145:C1 *51:26 5.18317e-06
10 *145:C1 *52:19 2.0231e-05
11 *129:B *149:A 1.07797e-05
12 *134:B *149:A 1.26626e-05
13 *141:A2 *145:C1 1.08758e-05
14 *141:A2 *149:A 8.30909e-05
15 *141:A2 *43:10 2.66935e-05
16 *142:A *145:C1 0.000241316
17 *144:B *149:A 0.000183731
18 *144:B *43:10 7.06865e-05
19 *144:C *43:10 1.7386e-05
20 *145:B1 *145:C1 8.35068e-05
21 *26:12 *145:C1 2.97746e-05
*RES
1 *144:X *43:10 4.92 
2 *43:10 *145:C1 16.135 
3 *43:10 *149:A 6.255 
*END

*D_NET *44 0.00287822
*CONN
*I *149:B I *D sky130_fd_sc_hd__or3_1
*I *151:C1 I *D sky130_fd_sc_hd__a211o_1
*I *146:X O *D sky130_fd_sc_hd__and4bb_1
*CAP
1 *149:B 0.000125858
2 *151:C1 0.000347888
3 *146:X 0.000403466
4 *44:12 0.000877211
5 *149:B *149:C 2.11084e-05
6 *151:C1 *122:A 6.31009e-05
7 *151:C1 *122:C 4.57073e-05
8 *44:12 *146:A_N 0.000121019
9 *124:A *151:C1 6.48689e-05
10 *134:D *44:12 0.000110124
11 *141:A1 *151:C1 1.56428e-05
12 *141:A1 *44:12 7.06865e-05
13 *145:A2 *151:C1 8.46717e-05
14 *145:B1 *151:C1 5.12969e-06
15 *148:B1 *151:C1 9.4988e-06
16 *148:B1 *44:12 7.06865e-05
17 *151:B1 *151:C1 5.70073e-05
18 *22:25 *151:C1 1.06688e-05
19 *22:25 *44:12 0.000156333
20 *24:21 *151:C1 0.00017673
21 *28:37 *149:B 2.51519e-05
22 *42:16 *151:C1 1.56651e-05
*RES
1 *146:X *44:12 11.06 
2 *44:12 *151:C1 8.335 
3 *44:12 *149:B 3.085 
*END

*D_NET *45 0.00041399
*CONN
*I *148:A3 I *D sky130_fd_sc_hd__a32o_1
*I *147:Y O *D sky130_fd_sc_hd__inv_2
*CAP
1 *148:A3 9.01428e-05
2 *147:Y 9.01428e-05
3 *148:A3 *50:38 1.1392e-05
4 *141:A2 *148:A3 0.000113797
5 *148:B1 *148:A3 3.59531e-06
6 *28:26 *148:A3 8.72849e-05
7 *28:71 *148:A3 1.7635e-05
*RES
1 *147:Y *148:A3 9.03 
*END

*D_NET *46 8.68287e-05
*CONN
*I *149:C I *D sky130_fd_sc_hd__or3_1
*I *148:X O *D sky130_fd_sc_hd__a32o_1
*CAP
1 *149:C 7.87918e-06
2 *148:X 7.87918e-06
3 *149:B *149:C 2.11084e-05
4 *28:37 *149:C 4.99619e-05
*RES
1 *148:X *149:C 3.65 
*END

*D_NET *47 0.000299372
*CONN
*I *150:A I *D sky130_fd_sc_hd__clkbuf_1
*I *149:X O *D sky130_fd_sc_hd__or3_1
*CAP
1 *150:A 9.47748e-05
2 *149:X 9.47748e-05
3 *150:A *169:A 2.87867e-05
4 *150:A *50:38 7.00889e-06
5 *129:B *150:A 7.4027e-05
*RES
1 *149:X *150:A 9.135 
*END

*D_NET *48 0.00236777
*CONN
*I *128:B I *D sky130_fd_sc_hd__and4_1
*I *126:D_N I *D sky130_fd_sc_hd__or4b_1
*I *152:X O *D sky130_fd_sc_hd__clkbuf_1
*CAP
1 *128:B 0.000217871
2 *126:D_N 1.53553e-05
3 *152:X 0.000491945
4 *48:10 0.000725171
5 *128:B *128:A 0
6 *128:B *128:C 0.000156804
7 *128:B *128:D 8.35068e-05
8 *128:B *62:18 1.91597e-05
9 *128:B *66:10 4.43871e-06
10 *48:10 *65:14 0.000123955
11 *48:10 *66:10 8.97486e-05
12 *124:B *128:B 0
13 *126:C *126:D_N 1.27853e-05
14 *126:C *128:B 8.64248e-05
15 *126:C *48:10 5.02868e-05
16 *131:A2_N *126:D_N 4.77719e-05
17 *145:B1 *128:B 0.000242551
*RES
1 *152:X *48:10 11.715 
2 *48:10 *126:D_N 4.05 
3 *48:10 *128:B 8.925 
*END

*D_NET *49 0.00285283
*CONN
*I *129:C I *D sky130_fd_sc_hd__and3b_1
*I *126:B I *D sky130_fd_sc_hd__or4b_1
*I *132:B I *D sky130_fd_sc_hd__and4_1
*I *153:X O *D sky130_fd_sc_hd__buf_1
*CAP
1 *129:C 0
2 *126:B 0.000160166
3 *132:B 0.000276918
4 *153:X 0.000256992
5 *49:12 0.000694076
6 *126:B *126:A 4.6368e-06
7 *126:B *128:C 3.60024e-06
8 *126:B *51:26 0.000134069
9 *126:B *66:10 3.42332e-05
10 *132:B *125:A 8.6076e-05
11 *132:B *132:C 0.000128955
12 *132:B *50:38 8.49205e-05
13 *132:B *52:19 4.39001e-05
14 *49:12 *130:A 4.66108e-05
15 *49:12 *130:B 0.000115779
16 *49:12 *50:12 0.000103811
17 *49:12 *50:23 2.92496e-05
18 *129:B *126:B 4.05674e-06
19 *129:B *132:B 0
20 *129:B *49:12 5.30079e-05
21 *131:A2_N *126:B 0.000195616
22 *131:A2_N *132:B 0.000116158
23 *131:B2 *132:B 5.13155e-05
24 *131:B2 *49:12 4.82863e-05
25 *147:A *132:B 0.000136182
26 *26:12 *126:B 3.6127e-05
27 *28:26 *132:B 0
28 *29:14 *132:B 8.09021e-06
*RES
1 *153:X *49:12 10.7 
2 *49:12 *132:B 11.735 
3 *49:12 *126:B 9.35 
4 *49:12 *129:C 1.6 
*END

*D_NET *50 0.00266426
*CONN
*I *132:A I *D sky130_fd_sc_hd__and4_1
*I *125:A I *D sky130_fd_sc_hd__or3_1
*I *144:A I *D sky130_fd_sc_hd__and3_1
*I *130:A I *D sky130_fd_sc_hd__xnor2_1
*I *154:X O *D sky130_fd_sc_hd__buf_1
*CAP
1 *132:A 0
2 *125:A 0.000153748
3 *144:A 0
4 *130:A 2.04868e-05
5 *154:X 0.000172244
6 *50:38 0.000432288
7 *50:23 0.000343527
8 *50:12 0.000257718
9 *125:A *128:C 7.80633e-05
10 *125:A *132:C 1.52352e-05
11 *125:A *132:D 0.000145329
12 *125:A *51:26 9.09788e-06
13 *125:A *62:18 1.91051e-05
14 *129:B *130:A 3.64998e-06
15 *129:B *50:23 0.000139245
16 *129:B *50:38 0.000156842
17 *132:B *125:A 8.6076e-05
18 *132:B *50:38 8.49205e-05
19 *145:C1 *125:A 8.49205e-05
20 *145:C1 *50:38 0.000257863
21 *148:A3 *50:38 1.1392e-05
22 *150:A *50:38 7.00889e-06
23 *28:26 *125:A 5.83121e-06
24 *49:12 *130:A 4.66108e-05
25 *49:12 *50:12 0.000103811
26 *49:12 *50:23 2.92496e-05
*RES
1 *154:X *50:12 8.72 
2 *50:12 *130:A 2.05 
3 *50:12 *50:23 3.635 
4 *50:23 *144:A 3.6 
5 *50:23 *50:38 7.805 
6 *50:38 *125:A 9.32 
7 *50:38 *132:A 1.6 
*END

*D_NET *51 0.0024786
*CONN
*I *130:B I *D sky130_fd_sc_hd__xnor2_1
*I *132:D I *D sky130_fd_sc_hd__and4_1
*I *125:C I *D sky130_fd_sc_hd__or3_1
*I *155:X O *D sky130_fd_sc_hd__buf_1
*CAP
1 *130:B 0.000108696
2 *132:D 9.96058e-05
3 *125:C 0
4 *155:X 0.000266012
5 *51:26 0.000387382
6 *51:10 0.000662484
7 *132:D *128:C 3.63701e-06
8 *132:D *132:C 0
9 *51:10 *52:8 2.43856e-05
10 *51:26 *128:C 1.67235e-05
11 *51:26 *129:A_N 4.60061e-05
12 *51:26 *52:8 5.05081e-05
13 *51:26 *52:19 5.23362e-05
14 *125:A *132:D 0.000145329
15 *125:A *51:26 9.09788e-06
16 *126:B *51:26 0.000134069
17 *129:B *130:B 8.96017e-05
18 *145:B1 *132:D 0
19 *145:C1 *132:D 6.82815e-05
20 *145:C1 *51:26 5.18317e-06
21 *26:12 *51:26 0.000120134
22 *28:26 *132:D 7.9642e-06
23 *29:14 *130:B 6.53798e-05
24 *29:14 *51:26 0
25 *49:12 *130:B 0.000115779
*RES
1 *155:X *51:10 6.7575 
2 *51:10 *51:26 9.4825 
3 *51:26 *125:C 3.6 
4 *51:26 *132:D 6 
5 *51:10 *130:B 6.7275 
*END

*D_NET *52 0.00191358
*CONN
*I *132:C I *D sky130_fd_sc_hd__and4_1
*I *125:B I *D sky130_fd_sc_hd__or3_1
*I *129:A_N I *D sky130_fd_sc_hd__and3b_1
*I *156:X O *D sky130_fd_sc_hd__buf_1
*CAP
1 *132:C 0.00014968
2 *125:B 0.000112953
3 *129:A_N 3.6003e-05
4 *156:X 5.01451e-05
5 *52:19 0.000357405
6 *52:8 0.000180919
7 *132:C *62:18 4.89295e-05
8 *125:A *132:C 1.52352e-05
9 *131:A2_N *52:19 0.000116158
10 *132:B *132:C 0.000128955
11 *132:B *52:19 4.39001e-05
12 *132:D *132:C 0
13 *145:C1 *132:C 3.03465e-05
14 *145:C1 *52:19 2.0231e-05
15 *147:A *125:B 0.000158175
16 *26:12 *129:A_N 4.77719e-05
17 *26:12 *52:8 2.92496e-05
18 *26:12 *52:19 0.000214282
19 *51:10 *52:8 2.43856e-05
20 *51:26 *129:A_N 4.60061e-05
21 *51:26 *52:8 5.05081e-05
22 *51:26 *52:19 5.23362e-05
*RES
1 *156:X *52:8 4.725 
2 *52:8 *129:A_N 4.395 
3 *52:8 *52:19 3.165 
4 *52:19 *125:B 5.085 
5 *52:19 *132:C 6.735 