** sch_path: /home/exotic/Desktop/ASIC_ADC/xschem/Vth_sch/test_logic_1.sch
**.subckt test_logic_1 b[3],b[2],b[1],b[0]
*.opin b[3],b[2],b[1],b[0]
VDD VDD GND 1.8
V0 p0 GND pulse(0.45 1.3 10ns 1ns 1ns 150ns)
V1 p1 GND pulse(0.45 1.3 20ns 1ns 1ns 140ns)
V2 p2 GND pulse(0.45 1.3 30ns 1ns 1ns 130ns)
V3 p3 GND pulse(0.45 1.3 40ns 1ns 1ns 120ns)
V4 p4 GND pulse(0.45 1.3 50ns 1ns 1ns 110ns)
V5 p5 GND pulse(0.45 1.3 60ns 1ns 1ns 100ns)
V6 p6 GND pulse(0.45 1.3 70ns 1ns 1ns 90ns)
V7 p7 GND pulse(0.45 1.3 70ns 1ns 1ns 90ns)
V8 p8 GND pulse(0.45 1.3 80ns 1ns 1ns 80ns)
V9 p9 GND pulse(0.45 1.3 90ns 1ns 1ns 70ns)
V10 p10 GND pulse(0.45 1.3 100ns 1ns 1ns 60ns)
V11 p11 GND pulse(0.45 1.3 110ns 1ns 1ns 50ns)
V12 p12 GND pulse(0.45 1.3 120ns 1ns 1ns 40ns)
V13 p13 GND pulse(0.45 1.3 130ns 1ns 1ns 30ns)
V14 p14 GND pulse(0.45 1.3 140ns 1ns 1ns 10ns)
x1 GND VDD pb[0] b[1] b[2] b[3] p0 p10 p11 p12 p13 p14 p1 p2 p3 p4 p5 p6 p7 p8 p9 therm


**** begin user architecture code


*vvpwr vpwr 0 dc 1.8
*vvgnd vgnd 0 dc 0
*.dc Vin 0 1.8 0.01
.tran 1n 160n
.control
run
*set color0=white
*set color1=black
*plot Vin Vout V_LH V_LL
plot p0 p1 p2 p3 p4 p5 p6 p7 p8 p9 p10 p11 p12 p13 p14
set xbrushwidth=3
*.save all
.endc
.end


 .lib /usr/local/share/pdk/sky130A/libs.tech/ngspice/sky130.lib.spice tt
*.include /usr/local/share/pdk/sky130A/libs.ref/sky130_fd_sc_hd/spice/sky130_fd_sc_hd.spice

**** end user architecture code
**.ends

* NGSPICE file created from therm.ext - technology: sky130A

.subckt sky130_fd_sc_hd__a311o_1 A1 A2 A3 B1 C1 VGND VNB VPB VPWR X a_208_47# a_75_199#
+ a_544_297# a_315_47# a_201_297#
X0 a_75_199# C1 VGND VNB sky130_fd_pr__nfet_01v8 ad=0.169 pd=1.82 as=0.135 ps=1.07 w=0.65 l=0.15
X1 a_208_47# A3 VGND VNB sky130_fd_pr__nfet_01v8 ad=0.125 pd=1.03 as=0.112 ps=0.995 w=0.65 l=0.15
X2 a_315_47# A2 a_208_47# VNB sky130_fd_pr__nfet_01v8 ad=0.169 pd=1.17 as=0.125 ps=1.03 w=0.65 l=0.15
X3 VGND B1 a_75_199# VNB sky130_fd_pr__nfet_01v8 ad=0.135 pd=1.07 as=0.106 ps=0.975 w=0.65 l=0.15
X4 a_75_199# A1 a_315_47# VNB sky130_fd_pr__nfet_01v8 ad=0.106 pd=0.975 as=0.169 ps=1.17 w=0.65 l=0.15
X5 a_75_199# C1 a_544_297# VPB sky130_fd_pr__pfet_01v8_hvt ad=0.26 pd=2.52 as=0.207 ps=1.41 w=1 l=0.15
X6 a_544_297# B1 a_201_297# VPB sky130_fd_pr__pfet_01v8_hvt ad=0.207 pd=1.41 as=0.162 ps=1.33 w=1 l=0.15
X7 VPWR a_75_199# X VPB sky130_fd_pr__pfet_01v8_hvt ad=0.142 pd=1.28 as=0.285 ps=2.57 w=1 l=0.15
X8 a_201_297# A3 VPWR VPB sky130_fd_pr__pfet_01v8_hvt ad=0.165 pd=1.33 as=0.142 ps=1.28 w=1 l=0.15
X9 VPWR A2 a_201_297# VPB sky130_fd_pr__pfet_01v8_hvt ad=0.305 pd=1.61 as=0.165 ps=1.33 w=1 l=0.15
X10 a_201_297# A1 VPWR VPB sky130_fd_pr__pfet_01v8_hvt ad=0.162 pd=1.33 as=0.305 ps=1.61 w=1 l=0.15
X11 VGND a_75_199# X VNB sky130_fd_pr__nfet_01v8 ad=0.112 pd=0.995 as=0.169 ps=1.82 w=0.65 l=0.15
C0 VGND a_315_47# 0.00427f
C1 a_201_297# a_75_199# 0.16f
C2 A2 VGND 0.0119f
C3 A3 a_208_47# 3.65e-19
C4 a_201_297# A1 0.011f
C5 X VGND 0.0609f
C6 a_75_199# A1 0.0696f
C7 VPWR VGND 0.0735f
C8 a_544_297# VGND 0.00256f
C9 a_201_297# B1 0.00594f
C10 VPB VGND 0.00772f
C11 a_208_47# a_75_199# 0.0159f
C12 a_201_297# C1 0.00243f
C13 a_75_199# B1 0.102f
C14 A3 A2 0.0747f
C15 a_75_199# C1 0.0628f
C16 A1 B1 0.0716f
C17 a_75_199# a_315_47# 0.0202f
C18 a_201_297# A2 0.0112f
C19 A3 X 0.00317f
C20 C1 A1 3.21e-19
C21 A3 VPWR 0.0181f
C22 VPB A3 0.0268f
C23 a_75_199# A2 0.0621f
C24 A1 a_315_47# 0.00313f
C25 a_201_297# X 0.0131f
C26 C1 B1 0.066f
C27 a_201_297# VPWR 0.211f
C28 a_544_297# a_201_297# 0.00702f
C29 VPB a_201_297# 0.00186f
C30 a_75_199# X 0.0959f
C31 A2 A1 0.0689f
C32 a_75_199# VPWR 0.109f
C33 a_544_297# a_75_199# 0.0176f
C34 VPB a_75_199# 0.0486f
C35 a_208_47# A2 0.00102f
C36 X A1 1.2e-19
C37 A3 VGND 0.0161f
C38 VPWR A1 0.0151f
C39 VPB A1 0.0306f
C40 a_208_47# X 1.91e-19
C41 a_208_47# VPWR 8.35e-19
C42 X B1 7.79e-20
C43 a_201_297# VGND 0.00403f
C44 A2 a_315_47# 0.00335f
C45 VPWR B1 0.0125f
C46 a_544_297# B1 1.13e-19
C47 VPB B1 0.0292f
C48 C1 X 5.14e-20
C49 a_75_199# VGND 0.362f
C50 C1 VPWR 0.0146f
C51 VPB C1 0.0394f
C52 VPWR a_315_47# 0.00154f
C53 VGND A1 0.0113f
C54 X A2 3.01e-19
C55 a_208_47# VGND 0.00302f
C56 A2 VPWR 0.0174f
C57 VPB A2 0.0376f
C58 A3 a_201_297# 0.00642f
C59 VGND B1 0.0171f
C60 A3 a_75_199# 0.163f
C61 X VPWR 0.0676f
C62 C1 VGND 0.0181f
C63 a_544_297# X 2.35e-19
C64 VPB X 0.0107f
C65 a_544_297# VPWR 0.0105f
C66 VPB VPWR 0.0749f
C67 VGND VNB 0.437f
C68 VPWR VNB 0.365f
C69 X VNB 0.0906f
C70 C1 VNB 0.148f
C71 B1 VNB 0.0947f
C72 A1 VNB 0.101f
C73 A2 VNB 0.11f
C74 A3 VNB 0.0908f
C75 VPB VNB 0.782f
C76 a_201_297# VNB 0.00345f
C77 a_75_199# VNB 0.205f
.ends

.subckt sky130_fd_sc_hd__and3_1 A B C VGND VNB VPB VPWR X a_181_47# a_109_47# a_27_47#
X0 VPWR A a_27_47# VPB sky130_fd_pr__pfet_01v8_hvt ad=0.0567 pd=0.69 as=0.109 ps=1.36 w=0.42 l=0.15
X1 VPWR C a_27_47# VPB sky130_fd_pr__pfet_01v8_hvt ad=0.142 pd=1.34 as=0.0662 ps=0.735 w=0.42 l=0.15
X2 a_181_47# B a_109_47# VNB sky130_fd_pr__nfet_01v8 ad=0.0441 pd=0.63 as=0.0441 ps=0.63 w=0.42 l=0.15
X3 VGND C a_181_47# VNB sky130_fd_pr__nfet_01v8 ad=0.132 pd=1.14 as=0.0441 ps=0.63 w=0.42 l=0.15
X4 a_27_47# B VPWR VPB sky130_fd_pr__pfet_01v8_hvt ad=0.0662 pd=0.735 as=0.0567 ps=0.69 w=0.42 l=0.15
X5 X a_27_47# VPWR VPB sky130_fd_pr__pfet_01v8_hvt ad=0.26 pd=2.52 as=0.142 ps=1.34 w=1 l=0.15
X6 X a_27_47# VGND VNB sky130_fd_pr__nfet_01v8 ad=0.169 pd=1.82 as=0.132 ps=1.14 w=0.65 l=0.15
X7 a_109_47# A a_27_47# VNB sky130_fd_pr__nfet_01v8 ad=0.0441 pd=0.63 as=0.109 ps=1.36 w=0.42 l=0.15
C0 VPWR X 0.0766f
C1 A a_109_47# 6.45e-19
C2 a_27_47# VPWR 0.145f
C3 VPB VPWR 0.0795f
C4 B VPWR 0.128f
C5 VGND VPWR 0.0475f
C6 A a_27_47# 0.157f
C7 A VPB 0.0426f
C8 C a_181_47# 0.00151f
C9 A B 0.0869f
C10 VGND A 0.0154f
C11 C X 0.0149f
C12 a_27_47# a_109_47# 0.00517f
C13 C a_27_47# 0.186f
C14 a_27_47# a_181_47# 0.00401f
C15 A VPWR 0.0185f
C16 VGND a_109_47# 0.00123f
C17 C VPB 0.0347f
C18 C B 0.0746f
C19 VGND C 0.0703f
C20 a_27_47# X 0.087f
C21 VGND a_181_47# 0.00261f
C22 VPB X 0.0121f
C23 B X 0.00111f
C24 VGND X 0.0708f
C25 VPWR a_109_47# 3.29e-19
C26 VPB a_27_47# 0.0501f
C27 C VPWR 0.00464f
C28 a_27_47# B 0.0625f
C29 VGND a_27_47# 0.134f
C30 VPWR a_181_47# 3.97e-19
C31 VPB B 0.0836f
C32 VGND VPB 0.00604f
C33 VGND B 0.00714f
C34 VGND VNB 0.3f
C35 X VNB 0.0923f
C36 C VNB 0.12f
C37 A VNB 0.174f
C38 VPWR VNB 0.274f
C39 B VNB 0.102f
C40 VPB VNB 0.516f
C41 a_27_47# VNB 0.177f
.ends

.subckt sky130_fd_sc_hd__decap_3 VGND VNB VPB VPWR
X0 VPWR VGND VPWR VPB sky130_fd_pr__pfet_01v8_hvt ad=0.226 pd=2.26 as=0.452 ps=4.52 w=0.87 l=0.59
X1 VGND VPWR VGND VNB sky130_fd_pr__nfet_01v8 ad=0.143 pd=1.62 as=0.286 ps=3.24 w=0.55 l=0.59
C0 VGND VPWR 0.353f
C1 VGND VPB 0.0797f
C2 VPWR VPB 0.0625f
C3 VPWR VNB 0.47f
C4 VGND VNB 0.427f
C5 VPB VNB 0.339f
.ends

.subckt sky130_fd_sc_hd__decap_4 VGND VNB VPB VPWR
X0 VPWR VGND VPWR VPB sky130_fd_pr__pfet_01v8_hvt ad=0.226 pd=2.26 as=0.452 ps=4.52 w=0.87 l=1.05
X1 VGND VPWR VGND VNB sky130_fd_pr__nfet_01v8 ad=0.143 pd=1.62 as=0.286 ps=3.24 w=0.55 l=1.05
C0 VGND VPWR 0.546f
C1 VGND VPB 0.116f
C2 VPWR VPB 0.0787f
C3 VPWR VNB 0.619f
C4 VGND VNB 0.554f
C5 VPB VNB 0.428f
.ends

.subckt sky130_fd_sc_hd__a21o_1 A1 A2 B1 VGND VNB VPB VPWR X a_384_47# a_81_21# a_299_297#
X0 a_81_21# B1 VGND VNB sky130_fd_pr__nfet_01v8 ad=0.0894 pd=0.925 as=0.257 ps=1.44 w=0.65 l=0.15
X1 a_299_297# B1 a_81_21# VPB sky130_fd_pr__pfet_01v8_hvt ad=0.138 pd=1.27 as=0.26 ps=2.52 w=1 l=0.15
X2 VPWR a_81_21# X VPB sky130_fd_pr__pfet_01v8_hvt ad=0.26 pd=2.52 as=0.26 ps=2.52 w=1 l=0.15
X3 VPWR A1 a_299_297# VPB sky130_fd_pr__pfet_01v8_hvt ad=0.14 pd=1.28 as=0.138 ps=1.27 w=1 l=0.15
X4 VGND a_81_21# X VNB sky130_fd_pr__nfet_01v8 ad=0.257 pd=1.44 as=0.169 ps=1.82 w=0.65 l=0.15
X5 VGND A2 a_384_47# VNB sky130_fd_pr__nfet_01v8 ad=0.172 pd=1.83 as=0.091 ps=0.93 w=0.65 l=0.15
X6 a_299_297# A2 VPWR VPB sky130_fd_pr__pfet_01v8_hvt ad=0.265 pd=2.53 as=0.14 ps=1.28 w=1 l=0.15
X7 a_384_47# A1 a_81_21# VNB sky130_fd_pr__nfet_01v8 ad=0.091 pd=0.93 as=0.0894 ps=0.925 w=0.65 l=0.15
C0 a_299_297# VPB 0.0111f
C1 VGND VPWR 0.0579f
C2 A2 VPWR 0.0201f
C3 a_81_21# a_299_297# 0.0821f
C4 VGND A2 0.0495f
C5 B1 a_299_297# 0.00863f
C6 A1 a_299_297# 0.0585f
C7 VPWR VPB 0.068f
C8 X VPWR 0.0847f
C9 VGND VPB 0.00713f
C10 a_384_47# a_81_21# 0.00138f
C11 A1 a_384_47# 0.00884f
C12 A2 VPB 0.0373f
C13 VGND X 0.0512f
C14 a_81_21# VPWR 0.146f
C15 B1 VPWR 0.0196f
C16 A1 VPWR 0.0209f
C17 VGND a_81_21# 0.173f
C18 B1 VGND 0.0181f
C19 A1 VGND 0.0786f
C20 a_384_47# a_299_297# 1.48e-19
C21 a_81_21# A2 7.47e-19
C22 A1 A2 0.0921f
C23 a_299_297# VPWR 0.202f
C24 X VPB 0.0108f
C25 VGND a_299_297# 0.00772f
C26 a_81_21# VPB 0.0593f
C27 B1 VPB 0.0387f
C28 a_299_297# A2 0.0468f
C29 A1 VPB 0.0264f
C30 X a_81_21# 0.112f
C31 B1 X 3.04e-20
C32 a_384_47# VPWR 4.08e-19
C33 VGND a_384_47# 0.00366f
C34 B1 a_81_21# 0.148f
C35 A1 a_81_21# 0.0568f
C36 B1 A1 0.0817f
C37 VGND VNB 0.364f
C38 VPWR VNB 0.286f
C39 X VNB 0.0945f
C40 A2 VNB 0.144f
C41 A1 VNB 0.0996f
C42 B1 VNB 0.109f
C43 VPB VNB 0.605f
C44 a_299_297# VNB 0.0348f
C45 a_81_21# VNB 0.147f
.ends

.subckt sky130_fd_sc_hd__inv_2 A VGND VNB VPB VPWR Y
X0 Y A VPWR VPB sky130_fd_pr__pfet_01v8_hvt ad=0.135 pd=1.27 as=0.26 ps=2.52 w=1 l=0.15
X1 VGND A Y VNB sky130_fd_pr__nfet_01v8 ad=0.169 pd=1.82 as=0.0878 ps=0.92 w=0.65 l=0.15
X2 Y A VGND VNB sky130_fd_pr__nfet_01v8 ad=0.0878 pd=0.92 as=0.169 ps=1.82 w=0.65 l=0.15
X3 VPWR A Y VPB sky130_fd_pr__pfet_01v8_hvt ad=0.26 pd=2.52 as=0.135 ps=1.27 w=1 l=0.15
C0 VPWR VGND 0.0423f
C1 Y VGND 0.155f
C2 VPB VGND 0.00649f
C3 A VGND 0.0638f
C4 Y VPWR 0.209f
C5 VPB VPWR 0.0521f
C6 A VPWR 0.0631f
C7 VPB Y 0.0061f
C8 A Y 0.0894f
C9 VPB A 0.0742f
C10 VGND VNB 0.266f
C11 Y VNB 0.0332f
C12 VPWR VNB 0.246f
C13 A VNB 0.263f
C14 VPB VNB 0.339f
.ends

.subckt sky130_fd_sc_hd__or3_1 A B C VGND VNB VPB VPWR X a_29_53# a_183_297# a_111_297#
X0 X a_29_53# VPWR VPB sky130_fd_pr__pfet_01v8_hvt ad=0.28 pd=2.56 as=0.148 ps=1.34 w=1 l=0.15
X1 a_111_297# C a_29_53# VPB sky130_fd_pr__pfet_01v8_hvt ad=0.0441 pd=0.63 as=0.109 ps=1.36 w=0.42 l=0.15
X2 X a_29_53# VGND VNB sky130_fd_pr__nfet_01v8 ad=0.182 pd=1.86 as=0.102 ps=0.99 w=0.65 l=0.15
X3 a_183_297# B a_111_297# VPB sky130_fd_pr__pfet_01v8_hvt ad=0.0693 pd=0.75 as=0.0441 ps=0.63 w=0.42 l=0.15
X4 VPWR A a_183_297# VPB sky130_fd_pr__pfet_01v8_hvt ad=0.148 pd=1.34 as=0.0693 ps=0.75 w=0.42 l=0.15
X5 a_29_53# B VGND VNB sky130_fd_pr__nfet_01v8 ad=0.0567 pd=0.69 as=0.0567 ps=0.69 w=0.42 l=0.15
X6 VGND C a_29_53# VNB sky130_fd_pr__nfet_01v8 ad=0.0567 pd=0.69 as=0.109 ps=1.36 w=0.42 l=0.15
X7 VGND A a_29_53# VNB sky130_fd_pr__nfet_01v8 ad=0.102 pd=0.99 as=0.0567 ps=0.69 w=0.42 l=0.15
C0 B VPWR 0.147f
C1 C VPWR 0.00457f
C2 X a_29_53# 0.0991f
C3 B C 0.0802f
C4 X VGND 0.036f
C5 X VPB 0.0109f
C6 VPWR a_29_53# 0.0833f
C7 VGND VPWR 0.0459f
C8 VPB VPWR 0.0649f
C9 B a_29_53# 0.121f
C10 X A 0.00127f
C11 B VGND 0.0152f
C12 B VPB 0.0962f
C13 A VPWR 0.00936f
C14 a_111_297# VPWR 5.94e-19
C15 C a_29_53# 0.0857f
C16 a_183_297# VPWR 8.13e-19
C17 C VGND 0.0161f
C18 C VPB 0.0396f
C19 B A 0.0787f
C20 C A 0.0343f
C21 VGND a_29_53# 0.217f
C22 VPB a_29_53# 0.0491f
C23 VPB VGND 0.00724f
C24 A a_29_53# 0.242f
C25 a_111_297# a_29_53# 0.005f
C26 a_183_297# a_29_53# 0.00868f
C27 A VGND 0.0187f
C28 a_111_297# VGND 3.96e-19
C29 a_183_297# VGND 5.75e-19
C30 VPB A 0.0377f
C31 X VPWR 0.0885f
C32 B X 6.52e-19
C33 a_111_297# A 0.00223f
C34 a_183_297# A 0.00239f
C35 VGND VNB 0.306f
C36 X VNB 0.0882f
C37 A VNB 0.117f
C38 C VNB 0.16f
C39 B VNB 0.117f
C40 VPWR VNB 0.253f
C41 VPB VNB 0.516f
C42 a_29_53# VNB 0.18f
.ends

.subckt sky130_fd_sc_hd__nor2_1 A B VGND VNB VPB VPWR Y a_109_297#
X0 VPWR A a_109_297# VPB sky130_fd_pr__pfet_01v8_hvt ad=0.26 pd=2.52 as=0.105 ps=1.21 w=1 l=0.15
X1 VGND A Y VNB sky130_fd_pr__nfet_01v8 ad=0.169 pd=1.82 as=0.0878 ps=0.92 w=0.65 l=0.15
X2 a_109_297# B Y VPB sky130_fd_pr__pfet_01v8_hvt ad=0.105 pd=1.21 as=0.26 ps=2.52 w=1 l=0.15
X3 Y B VGND VNB sky130_fd_pr__nfet_01v8 ad=0.0878 pd=0.92 as=0.169 ps=1.82 w=0.65 l=0.15
C0 Y VGND 0.154f
C1 Y B 0.0877f
C2 VPB VGND 0.00456f
C3 VPB B 0.0367f
C4 Y VPWR 0.0995f
C5 Y a_109_297# 0.0113f
C6 B VGND 0.0451f
C7 Y A 0.0471f
C8 VPB VPWR 0.0449f
C9 VPWR VGND 0.0314f
C10 a_109_297# VGND 0.00128f
C11 B VPWR 0.0148f
C12 VPB A 0.0415f
C13 A VGND 0.0486f
C14 B A 0.0584f
C15 a_109_297# VPWR 0.00638f
C16 A VPWR 0.0528f
C17 VPB Y 0.0139f
C18 VGND VNB 0.263f
C19 VPWR VNB 0.214f
C20 Y VNB 0.0605f
C21 A VNB 0.149f
C22 B VNB 0.143f
C23 VPB VNB 0.339f
.ends

.subckt sky130_fd_sc_hd__decap_6 VGND VNB VPB VPWR
X0 VPWR VGND VPWR VPB sky130_fd_pr__pfet_01v8_hvt ad=0.226 pd=2.26 as=0.452 ps=4.52 w=0.87 l=1.97
X1 VGND VPWR VGND VNB sky130_fd_pr__nfet_01v8 ad=0.143 pd=1.62 as=0.286 ps=3.24 w=0.55 l=1.97
C0 VPB VPWR 0.0858f
C1 VPB VGND 0.161f
C2 VGND VPWR 0.903f
C3 VPWR VNB 0.867f
C4 VGND VNB 0.761f
C5 VPB VNB 0.605f
.ends

.subckt sky130_fd_sc_hd__a221o_1 A1 A2 B1 B2 C1 VGND VNB VPB VPWR X a_193_297# a_465_47#
+ a_205_47# a_109_297# a_27_47#
X0 a_465_47# A1 a_27_47# VNB sky130_fd_pr__nfet_01v8 ad=0.107 pd=0.98 as=0.169 ps=1.82 w=0.65 l=0.15
X1 X a_27_47# VPWR VPB sky130_fd_pr__pfet_01v8_hvt ad=0.26 pd=2.52 as=0.157 ps=1.32 w=1 l=0.15
X2 a_109_297# B1 a_193_297# VPB sky130_fd_pr__pfet_01v8_hvt ad=0.26 pd=2.52 as=0.135 ps=1.27 w=1 l=0.15
X3 a_193_297# B2 a_109_297# VPB sky130_fd_pr__pfet_01v8_hvt ad=0.135 pd=1.27 as=0.135 ps=1.27 w=1 l=0.15
X4 X a_27_47# VGND VNB sky130_fd_pr__nfet_01v8 ad=0.169 pd=1.82 as=0.102 ps=0.965 w=0.65 l=0.15
X5 a_205_47# B2 VGND VNB sky130_fd_pr__nfet_01v8 ad=0.0683 pd=0.86 as=0.107 ps=0.98 w=0.65 l=0.15
X6 VPWR A2 a_193_297# VPB sky130_fd_pr__pfet_01v8_hvt ad=0.157 pd=1.32 as=0.165 ps=1.33 w=1 l=0.15
X7 a_193_297# A1 VPWR VPB sky130_fd_pr__pfet_01v8_hvt ad=0.165 pd=1.33 as=0.26 ps=2.52 w=1 l=0.15
X8 a_27_47# B1 a_205_47# VNB sky130_fd_pr__nfet_01v8 ad=0.169 pd=1.82 as=0.0683 ps=0.86 w=0.65 l=0.15
X9 a_109_297# C1 a_27_47# VPB sky130_fd_pr__pfet_01v8_hvt ad=0.135 pd=1.27 as=0.26 ps=2.52 w=1 l=0.15
X10 VGND C1 a_27_47# VNB sky130_fd_pr__nfet_01v8 ad=0.107 pd=0.98 as=0.169 ps=1.82 w=0.65 l=0.15
X11 VGND A2 a_465_47# VNB sky130_fd_pr__nfet_01v8 ad=0.102 pd=0.965 as=0.107 ps=0.98 w=0.65 l=0.15
C0 A1 B1 0.0609f
C1 A1 A2 0.0692f
C2 a_109_297# C1 0.00739f
C3 a_109_297# VPWR 0.15f
C4 C1 B1 6.46e-19
C5 C1 A2 9.03e-21
C6 VPWR B1 0.00982f
C7 VPWR A2 0.0209f
C8 a_109_297# X 3.99e-19
C9 A1 C1 1.77e-20
C10 a_109_297# a_193_297# 0.0927f
C11 A1 VPWR 0.0161f
C12 a_109_297# B2 0.0133f
C13 X B1 9.58e-20
C14 X A2 0.00157f
C15 VPWR a_205_47# 1.62e-19
C16 a_193_297# B1 0.00869f
C17 A2 a_193_297# 0.00683f
C18 A1 X 2.77e-19
C19 B2 B1 0.0784f
C20 A1 a_465_47# 7.06e-19
C21 VPWR C1 0.0139f
C22 a_109_297# a_27_47# 0.0961f
C23 VGND a_109_297# 0.00284f
C24 VPB a_109_297# 0.00421f
C25 A1 a_193_297# 0.0109f
C26 X C1 5.03e-20
C27 a_27_47# B1 0.112f
C28 A2 a_27_47# 0.153f
C29 VGND B1 0.0133f
C30 VGND A2 0.0168f
C31 VPB B1 0.0321f
C32 VPB A2 0.027f
C33 VPWR X 0.0897f
C34 VPWR a_465_47# 5.05e-19
C35 C1 B2 0.0726f
C36 A1 a_27_47# 0.0984f
C37 VGND A1 0.0126f
C38 VPB A1 0.0343f
C39 VPWR a_193_297# 0.169f
C40 VPWR B2 0.00842f
C41 a_27_47# a_205_47# 0.00762f
C42 VGND a_205_47# 0.00156f
C43 X a_465_47# 1.56e-19
C44 C1 a_27_47# 0.0792f
C45 VGND C1 0.0196f
C46 X a_193_297# 0.00367f
C47 VPB C1 0.0367f
C48 X B2 6.77e-20
C49 VPWR a_27_47# 0.099f
C50 VGND VPWR 0.0722f
C51 VPB VPWR 0.0799f
C52 B2 a_193_297# 0.00126f
C53 X a_27_47# 0.0921f
C54 VGND X 0.061f
C55 a_27_47# a_465_47# 0.013f
C56 VGND a_465_47# 0.00257f
C57 VPB X 0.0113f
C58 a_27_47# a_193_297# 0.144f
C59 VGND a_193_297# 0.00438f
C60 VPB a_193_297# 0.00774f
C61 B2 a_27_47# 0.0959f
C62 VGND B2 0.0174f
C63 VPB B2 0.0256f
C64 a_109_297# B1 0.00736f
C65 A1 a_109_297# 1.05e-19
C66 VGND a_27_47# 0.395f
C67 VPB a_27_47# 0.0512f
C68 VGND VPB 0.00844f
C69 VGND VNB 0.437f
C70 X VNB 0.0919f
C71 VPWR VNB 0.364f
C72 A2 VNB 0.0896f
C73 A1 VNB 0.106f
C74 B1 VNB 0.108f
C75 B2 VNB 0.0887f
C76 C1 VNB 0.139f
C77 VPB VNB 0.782f
C78 a_193_297# VNB 0.0011f
C79 a_109_297# VNB 7.11e-19
C80 a_27_47# VNB 0.216f
.ends

.subckt sky130_fd_sc_hd__a32o_1 A1 A2 A3 B1 B2 VGND VNB VPB VPWR X a_256_47# a_584_47#
+ a_93_21# a_250_297# a_346_47#
X0 a_93_21# A1 a_346_47# VNB sky130_fd_pr__nfet_01v8 ad=0.143 pd=1.09 as=0.146 ps=1.1 w=0.65 l=0.15
X1 a_93_21# B1 a_250_297# VPB sky130_fd_pr__pfet_01v8_hvt ad=0.14 pd=1.28 as=0.185 ps=1.37 w=1 l=0.15
X2 a_584_47# B1 a_93_21# VNB sky130_fd_pr__nfet_01v8 ad=0.0683 pd=0.86 as=0.143 ps=1.09 w=0.65 l=0.15
X3 VPWR a_93_21# X VPB sky130_fd_pr__pfet_01v8_hvt ad=0.243 pd=1.49 as=0.33 ps=2.66 w=1 l=0.15
X4 VGND B2 a_584_47# VNB sky130_fd_pr__nfet_01v8 ad=0.172 pd=1.83 as=0.0683 ps=0.86 w=0.65 l=0.15
X5 a_256_47# A3 VGND VNB sky130_fd_pr__nfet_01v8 ad=0.0975 pd=0.95 as=0.167 ps=1.16 w=0.65 l=0.15
X6 a_250_297# B2 a_93_21# VPB sky130_fd_pr__pfet_01v8_hvt ad=0.265 pd=2.53 as=0.14 ps=1.28 w=1 l=0.15
X7 VGND a_93_21# X VNB sky130_fd_pr__nfet_01v8 ad=0.167 pd=1.16 as=0.214 ps=1.96 w=0.65 l=0.15
X8 a_250_297# A3 VPWR VPB sky130_fd_pr__pfet_01v8_hvt ad=0.165 pd=1.33 as=0.243 ps=1.49 w=1 l=0.15
X9 VPWR A2 a_250_297# VPB sky130_fd_pr__pfet_01v8_hvt ad=0.225 pd=1.45 as=0.165 ps=1.33 w=1 l=0.15
X10 a_250_297# A1 VPWR VPB sky130_fd_pr__pfet_01v8_hvt ad=0.185 pd=1.37 as=0.225 ps=1.45 w=1 l=0.15
X11 a_346_47# A2 a_256_47# VNB sky130_fd_pr__nfet_01v8 ad=0.146 pd=1.1 as=0.0975 ps=0.95 w=0.65 l=0.15
C0 A1 B2 3.14e-19
C1 B2 a_250_297# 0.0344f
C2 A3 a_250_297# 0.00602f
C3 a_584_47# a_250_297# 2.43e-19
C4 A1 X 6.03e-20
C5 a_256_47# A3 4.42e-19
C6 A1 B1 0.0965f
C7 A1 a_93_21# 0.0641f
C8 A3 B2 9.12e-20
C9 a_250_297# X 5.42e-19
C10 B1 a_250_297# 0.0125f
C11 a_346_47# B1 5.39e-20
C12 a_93_21# a_250_297# 0.188f
C13 a_346_47# a_93_21# 0.0119f
C14 A1 A2 0.0971f
C15 VPWR A1 0.016f
C16 VPB A1 0.0296f
C17 VGND A1 0.0133f
C18 a_256_47# B1 2.07e-20
C19 a_256_47# a_93_21# 0.0114f
C20 A2 a_250_297# 0.0129f
C21 B1 B2 0.0823f
C22 a_346_47# A2 0.00252f
C23 VPWR a_250_297# 0.313f
C24 A3 X 2.45e-19
C25 VPWR a_346_47# 0.00109f
C26 VPB a_250_297# 0.00616f
C27 VGND a_250_297# 0.0072f
C28 VGND a_346_47# 0.00514f
C29 a_93_21# B2 0.0147f
C30 A3 B1 7.88e-22
C31 A3 a_93_21# 0.124f
C32 a_256_47# A2 0.00256f
C33 VPWR a_256_47# 9.47e-19
C34 VGND a_256_47# 0.00394f
C35 a_584_47# B1 0.00143f
C36 a_584_47# a_93_21# 0.00278f
C37 A2 B2 1.46e-19
C38 VPWR B2 0.0108f
C39 VPB B2 0.0355f
C40 VGND B2 0.0469f
C41 A3 A2 0.0788f
C42 VPWR A3 0.0158f
C43 VPB A3 0.0291f
C44 VGND A3 0.00974f
C45 B1 X 3.83e-20
C46 a_93_21# X 0.0841f
C47 VPWR a_584_47# 9.47e-19
C48 VGND a_584_47# 0.00683f
C49 a_93_21# B1 0.0774f
C50 A2 X 1.19e-19
C51 VPWR X 0.0849f
C52 VPB X 0.0108f
C53 VGND X 0.06f
C54 A2 B1 1.44e-20
C55 VPWR B1 0.01f
C56 VPB B1 0.0276f
C57 VGND B1 0.0344f
C58 a_93_21# A2 0.0747f
C59 VPWR a_93_21# 0.0907f
C60 VPB a_93_21# 0.0485f
C61 VGND a_93_21# 0.251f
C62 A1 a_250_297# 0.0129f
C63 A1 a_346_47# 0.00465f
C64 VPWR A2 0.0133f
C65 VPB A2 0.0287f
C66 VPWR VPB 0.0756f
C67 VGND A2 0.0114f
C68 VPWR VGND 0.076f
C69 VPB VGND 0.00788f
C70 VGND VNB 0.465f
C71 VPWR VNB 0.365f
C72 X VNB 0.0937f
C73 B2 VNB 0.14f
C74 B1 VNB 0.101f
C75 A1 VNB 0.0951f
C76 A2 VNB 0.0921f
C77 A3 VNB 0.0929f
C78 VPB VNB 0.782f
C79 a_250_297# VNB 0.0278f
C80 a_93_21# VNB 0.151f
.ends

.subckt sky130_fd_sc_hd__or4_1 A B C D VGND VNB VPB VPWR X a_277_297# a_205_297# a_27_297#
+ a_109_297#
X0 a_27_297# B VGND VNB sky130_fd_pr__nfet_01v8 ad=0.0567 pd=0.69 as=0.0567 ps=0.69 w=0.42 l=0.15
X1 a_27_297# D VGND VNB sky130_fd_pr__nfet_01v8 ad=0.0693 pd=0.75 as=0.109 ps=1.36 w=0.42 l=0.15
X2 a_277_297# B a_205_297# VPB sky130_fd_pr__pfet_01v8_hvt ad=0.0693 pd=0.75 as=0.0441 ps=0.63 w=0.42 l=0.15
X3 VPWR A a_277_297# VPB sky130_fd_pr__pfet_01v8_hvt ad=0.148 pd=1.34 as=0.0693 ps=0.75 w=0.42 l=0.15
X4 X a_27_297# VGND VNB sky130_fd_pr__nfet_01v8 ad=0.176 pd=1.84 as=0.102 ps=0.99 w=0.65 l=0.15
X5 a_205_297# C a_109_297# VPB sky130_fd_pr__pfet_01v8_hvt ad=0.0441 pd=0.63 as=0.0693 ps=0.75 w=0.42 l=0.15
X6 X a_27_297# VPWR VPB sky130_fd_pr__pfet_01v8_hvt ad=0.27 pd=2.54 as=0.148 ps=1.34 w=1 l=0.15
X7 VGND C a_27_297# VNB sky130_fd_pr__nfet_01v8 ad=0.0567 pd=0.69 as=0.0693 ps=0.75 w=0.42 l=0.15
X8 a_109_297# D a_27_297# VPB sky130_fd_pr__pfet_01v8_hvt ad=0.0693 pd=0.75 as=0.109 ps=1.36 w=0.42 l=0.15
X9 VGND A a_27_297# VNB sky130_fd_pr__nfet_01v8 ad=0.102 pd=0.99 as=0.0567 ps=0.69 w=0.42 l=0.15
C0 A C 0.028f
C1 A X 0.00133f
C2 a_277_297# C 5.54e-19
C3 X a_277_297# 6.43e-20
C4 a_109_297# VGND 7.58e-19
C5 B C 0.0917f
C6 B X 6.42e-19
C7 A a_277_297# 2.28e-19
C8 VGND C 0.0191f
C9 VGND X 0.0354f
C10 A B 0.0639f
C11 A VGND 0.016f
C12 B a_277_297# 2.29e-19
C13 VGND a_277_297# 4.65e-19
C14 a_205_297# C 0.00261f
C15 D C 0.0954f
C16 VGND B 0.0159f
C17 a_109_297# a_27_297# 0.00695f
C18 VPWR a_109_297# 9.23e-19
C19 A D 2.13e-19
C20 a_27_297# C 0.158f
C21 X a_27_297# 0.0991f
C22 VPB C 0.0338f
C23 VPB X 0.0109f
C24 VPWR C 0.00723f
C25 VPWR X 0.0878f
C26 B D 0.00287f
C27 A a_27_297# 0.163f
C28 VPB A 0.033f
C29 VPWR A 0.00769f
C30 VGND a_205_297# 3.36e-19
C31 VGND D 0.0517f
C32 a_27_297# a_277_297# 0.00876f
C33 VPWR a_277_297# 7.48e-19
C34 B a_27_297# 0.159f
C35 VPB B 0.106f
C36 VPWR B 0.193f
C37 VGND a_27_297# 0.235f
C38 VPB VGND 0.00796f
C39 VPWR VGND 0.0546f
C40 a_27_297# a_205_297# 0.00412f
C41 VPWR a_205_297# 5.16e-19
C42 D a_27_297# 0.054f
C43 VPB D 0.0405f
C44 VPWR D 0.00503f
C45 a_109_297# C 0.00356f
C46 VPB a_27_297# 0.0517f
C47 VPWR a_27_297# 0.084f
C48 VPB VPWR 0.075f
C49 VGND VNB 0.367f
C50 X VNB 0.0883f
C51 A VNB 0.109f
C52 C VNB 0.105f
C53 D VNB 0.175f
C54 B VNB 0.115f
C55 VPWR VNB 0.29f
C56 VPB VNB 0.605f
C57 a_27_297# VNB 0.163f
.ends

.subckt sky130_ef_sc_hd__decap_12 VGND VPWR VPB VNB
X0 VPWR VGND VPWR VPB sky130_fd_pr__pfet_01v8_hvt ad=0.226 pd=2.26 as=0.452 ps=4.52 w=0.87 l=4.73
X1 VGND VPWR VGND VNB sky130_fd_pr__nfet_01v8 ad=0.143 pd=1.62 as=0.286 ps=3.24 w=0.55 l=4.73
C0 VPB VPWR 0.137f
C1 VGND VPWR 1.57f
C2 VPB VGND 0.35f
C3 VPWR VNB 1.67f
C4 VGND VNB 1.47f
C5 VPB VNB 1.14f
.ends

.subckt sky130_fd_sc_hd__and4b_1 A_N B C D VGND VNB VPB VPWR X a_369_47# a_469_47#
+ a_297_47# a_193_413# a_27_47#
X0 a_297_47# a_27_47# a_193_413# VNB sky130_fd_pr__nfet_01v8 ad=0.0441 pd=0.63 as=0.109 ps=1.36 w=0.42 l=0.15
X1 a_369_47# B a_297_47# VNB sky130_fd_pr__nfet_01v8 ad=0.0735 pd=0.77 as=0.0441 ps=0.63 w=0.42 l=0.15
X2 VPWR D a_193_413# VPB sky130_fd_pr__pfet_01v8_hvt ad=0.141 pd=1.33 as=0.0662 ps=0.735 w=0.42 l=0.15
X3 X a_193_413# VGND VNB sky130_fd_pr__nfet_01v8 ad=0.169 pd=1.82 as=0.103 ps=1 w=0.65 l=0.15
X4 VPWR A_N a_27_47# VPB sky130_fd_pr__pfet_01v8_hvt ad=0.0567 pd=0.69 as=0.109 ps=1.36 w=0.42 l=0.15
X5 VGND D a_469_47# VNB sky130_fd_pr__nfet_01v8 ad=0.103 pd=1 as=0.0609 ps=0.71 w=0.42 l=0.15
X6 X a_193_413# VPWR VPB sky130_fd_pr__pfet_01v8_hvt ad=0.26 pd=2.52 as=0.141 ps=1.33 w=1 l=0.15
X7 VPWR B a_193_413# VPB sky130_fd_pr__pfet_01v8_hvt ad=0.128 pd=1.03 as=0.0987 ps=0.89 w=0.42 l=0.15
X8 a_193_413# C VPWR VPB sky130_fd_pr__pfet_01v8_hvt ad=0.0662 pd=0.735 as=0.128 ps=1.03 w=0.42 l=0.15
X9 a_193_413# a_27_47# VPWR VPB sky130_fd_pr__pfet_01v8_hvt ad=0.0987 pd=0.89 as=0.0567 ps=0.69 w=0.42 l=0.15
X10 a_469_47# C a_369_47# VNB sky130_fd_pr__nfet_01v8 ad=0.0609 pd=0.71 as=0.0735 ps=0.77 w=0.42 l=0.15
X11 VGND A_N a_27_47# VNB sky130_fd_pr__nfet_01v8 ad=0.109 pd=1.36 as=0.109 ps=1.36 w=0.42 l=0.15
C0 C VPWR 0.0182f
C1 C a_193_413# 0.0389f
C2 VPWR a_369_47# 6.65e-19
C3 C VPB 0.0742f
C4 a_193_413# a_369_47# 0.00181f
C5 a_469_47# VPWR 7.77e-19
C6 C VGND 0.0395f
C7 C X 0.00479f
C8 a_469_47# a_193_413# 0.00109f
C9 C D 0.183f
C10 a_193_413# VPWR 0.281f
C11 VGND a_369_47# 0.00505f
C12 VPB VPWR 0.0818f
C13 a_469_47# VGND 0.00551f
C14 a_469_47# X 0.001f
C15 VPB a_193_413# 0.0644f
C16 C B 0.164f
C17 a_469_47# D 0.00183f
C18 VGND VPWR 0.0727f
C19 VPWR X 0.0586f
C20 B a_369_47# 0.00129f
C21 D VPWR 0.0186f
C22 a_193_413# VGND 0.0915f
C23 a_193_413# X 0.108f
C24 a_297_47# VPWR 2.82e-19
C25 VPB VGND 0.0123f
C26 a_193_413# D 0.155f
C27 VPB X 0.0108f
C28 a_193_413# a_297_47# 0.00137f
C29 VPB D 0.0763f
C30 B VPWR 0.0186f
C31 A_N VPWR 0.02f
C32 a_27_47# VPWR 0.106f
C33 VGND X 0.0588f
C34 a_193_413# B 0.144f
C35 A_N a_193_413# 0.00151f
C36 D VGND 0.0372f
C37 a_27_47# a_193_413# 0.125f
C38 D X 0.0168f
C39 a_297_47# VGND 0.00183f
C40 VPB B 0.089f
C41 A_N VPB 0.0832f
C42 a_27_47# VPB 0.092f
C43 B VGND 0.037f
C44 A_N VGND 0.0205f
C45 a_27_47# VGND 0.103f
C46 a_297_47# B 0.00353f
C47 C a_369_47# 0.00448f
C48 a_469_47# C 0.00202f
C49 a_27_47# B 0.0794f
C50 A_N a_27_47# 0.237f
C51 VGND VNB 0.456f
C52 X VNB 0.0934f
C53 VPWR VNB 0.368f
C54 D VNB 0.123f
C55 C VNB 0.108f
C56 B VNB 0.12f
C57 A_N VNB 0.198f
C58 VPB VNB 0.782f
C59 a_193_413# VNB 0.136f
C60 a_27_47# VNB 0.224f
.ends

.subckt sky130_fd_sc_hd__and3b_1 A_N B C VGND VNB VPB VPWR X a_109_93# a_368_53# a_209_311#
+ a_296_53#
X0 a_109_93# A_N VGND VNB sky130_fd_pr__nfet_01v8 ad=0.108 pd=1.36 as=0.109 ps=1.36 w=0.42 l=0.15
X1 X a_209_311# VPWR VPB sky130_fd_pr__pfet_01v8_hvt ad=0.26 pd=2.52 as=0.142 ps=1.34 w=1 l=0.15
X2 a_109_93# A_N VPWR VPB sky130_fd_pr__pfet_01v8_hvt ad=0.109 pd=1.36 as=0.109 ps=1.36 w=0.42 l=0.15
X3 a_296_53# a_109_93# a_209_311# VNB sky130_fd_pr__nfet_01v8 ad=0.0441 pd=0.63 as=0.108 ps=1.36 w=0.42 l=0.15
X4 VPWR C a_209_311# VPB sky130_fd_pr__pfet_01v8_hvt ad=0.142 pd=1.34 as=0.0744 ps=0.815 w=0.42 l=0.15
X5 a_368_53# B a_296_53# VNB sky130_fd_pr__nfet_01v8 ad=0.0536 pd=0.675 as=0.0441 ps=0.63 w=0.42 l=0.15
X6 X a_209_311# VGND VNB sky130_fd_pr__nfet_01v8 ad=0.169 pd=1.82 as=0.122 ps=1.08 w=0.65 l=0.15
X7 a_209_311# B VPWR VPB sky130_fd_pr__pfet_01v8_hvt ad=0.0744 pd=0.815 as=0.0567 ps=0.69 w=0.42 l=0.15
X8 VPWR a_109_93# a_209_311# VPB sky130_fd_pr__pfet_01v8_hvt ad=0.0567 pd=0.69 as=0.108 ps=1.36 w=0.42 l=0.15
X9 VGND C a_368_53# VNB sky130_fd_pr__nfet_01v8 ad=0.122 pd=1.08 as=0.0536 ps=0.675 w=0.42 l=0.15
C0 a_296_53# VPWR 1.15e-19
C1 C VGND 0.0678f
C2 VPWR VGND 0.0657f
C3 A_N VGND 0.045f
C4 VGND VPB 0.00909f
C5 a_368_53# VGND 0.0031f
C6 X VGND 0.0647f
C7 VPWR C 0.005f
C8 a_296_53# a_209_311# 0.0049f
C9 a_109_93# a_296_53# 1.84e-19
C10 a_209_311# VGND 0.131f
C11 C A_N 7.6e-19
C12 a_109_93# VGND 0.0784f
C13 C VPB 0.0339f
C14 B VGND 0.00796f
C15 VPWR A_N 0.0513f
C16 C a_368_53# 0.00415f
C17 VPWR VPB 0.104f
C18 C X 0.0176f
C19 VPWR a_368_53# 4.26e-19
C20 VPWR X 0.0732f
C21 A_N VPB 0.111f
C22 C a_209_311# 0.19f
C23 a_109_93# C 3.91e-20
C24 B C 0.0671f
C25 X A_N 1.44e-19
C26 X VPB 0.0119f
C27 VPWR a_209_311# 0.155f
C28 a_109_93# VPWR 0.0984f
C29 B VPWR 0.131f
C30 a_209_311# A_N 0.00515f
C31 a_209_311# VPB 0.0515f
C32 a_109_93# A_N 0.117f
C33 a_109_93# VPB 0.0652f
C34 B A_N 2.03e-19
C35 B VPB 0.0914f
C36 a_209_311# a_368_53# 0.0026f
C37 X a_209_311# 0.0877f
C38 B X 0.00119f
C39 a_296_53# VGND 6.07e-19
C40 a_109_93# a_209_311# 0.168f
C41 B a_209_311# 0.0609f
C42 a_109_93# B 0.0802f
C43 VGND VNB 0.44f
C44 X VNB 0.0925f
C45 C VNB 0.114f
C46 B VNB 0.101f
C47 VPWR VNB 0.342f
C48 A_N VNB 0.197f
C49 VPB VNB 0.693f
C50 a_209_311# VNB 0.143f
C51 a_109_93# VNB 0.158f
.ends

.subckt sky130_fd_sc_hd__clkbuf_4 A VGND VNB VPB VPWR X a_27_47#
X0 VPWR A a_27_47# VPB sky130_fd_pr__pfet_01v8_hvt ad=0.165 pd=1.33 as=0.265 ps=2.53 w=1 l=0.15
X1 VGND a_27_47# X VNB sky130_fd_pr__nfet_01v8 ad=0.122 pd=1.42 as=0.0588 ps=0.7 w=0.42 l=0.15
X2 VGND a_27_47# X VNB sky130_fd_pr__nfet_01v8 ad=0.0588 pd=0.7 as=0.0588 ps=0.7 w=0.42 l=0.15
X3 X a_27_47# VPWR VPB sky130_fd_pr__pfet_01v8_hvt ad=0.14 pd=1.28 as=0.14 ps=1.28 w=1 l=0.15
X4 X a_27_47# VGND VNB sky130_fd_pr__nfet_01v8 ad=0.0588 pd=0.7 as=0.0588 ps=0.7 w=0.42 l=0.15
X5 VGND A a_27_47# VNB sky130_fd_pr__nfet_01v8 ad=0.0703 pd=0.755 as=0.111 ps=1.37 w=0.42 l=0.15
X6 VPWR a_27_47# X VPB sky130_fd_pr__pfet_01v8_hvt ad=0.3 pd=2.6 as=0.14 ps=1.28 w=1 l=0.15
X7 X a_27_47# VGND VNB sky130_fd_pr__nfet_01v8 ad=0.0588 pd=0.7 as=0.0703 ps=0.755 w=0.42 l=0.15
X8 X a_27_47# VPWR VPB sky130_fd_pr__pfet_01v8_hvt ad=0.14 pd=1.28 as=0.165 ps=1.33 w=1 l=0.15
X9 VPWR a_27_47# X VPB sky130_fd_pr__pfet_01v8_hvt ad=0.14 pd=1.28 as=0.14 ps=1.28 w=1 l=0.15
C0 X VPWR 0.317f
C1 X VGND 0.216f
C2 VPB VPWR 0.0632f
C3 VPB VGND 0.00583f
C4 a_27_47# VPWR 0.219f
C5 a_27_47# VGND 0.148f
C6 X VPB 0.0122f
C7 X a_27_47# 0.328f
C8 A VPWR 0.022f
C9 VGND A 0.0431f
C10 a_27_47# VPB 0.139f
C11 X A 0.014f
C12 VPB A 0.0321f
C13 a_27_47# A 0.195f
C14 VGND VPWR 0.057f
C15 VGND VNB 0.358f
C16 X VNB 0.067f
C17 VPWR VNB 0.308f
C18 A VNB 0.148f
C19 VPB VNB 0.605f
C20 a_27_47# VNB 0.543f
.ends

.subckt sky130_fd_sc_hd__and2_1 A B VGND VNB VPB VPWR X a_145_75# a_59_75#
X0 VPWR B a_59_75# VPB sky130_fd_pr__pfet_01v8_hvt ad=0.167 pd=1.39 as=0.0567 ps=0.69 w=0.42 l=0.15
X1 X a_59_75# VPWR VPB sky130_fd_pr__pfet_01v8_hvt ad=0.475 pd=2.95 as=0.167 ps=1.39 w=1 l=0.15
X2 VGND B a_145_75# VNB sky130_fd_pr__nfet_01v8 ad=0.112 pd=1.04 as=0.0567 ps=0.69 w=0.42 l=0.15
X3 a_59_75# A VPWR VPB sky130_fd_pr__pfet_01v8_hvt ad=0.0567 pd=0.69 as=0.118 ps=1.4 w=0.42 l=0.15
X4 X a_59_75# VGND VNB sky130_fd_pr__nfet_01v8 ad=0.182 pd=1.86 as=0.112 ps=1.04 w=0.65 l=0.15
X5 a_145_75# A a_59_75# VNB sky130_fd_pr__nfet_01v8 ad=0.0567 pd=0.69 as=0.118 ps=1.4 w=0.42 l=0.15
C0 A VPWR 0.0362f
C1 A B 0.0971f
C2 a_59_75# VPWR 0.15f
C3 a_59_75# B 0.143f
C4 A a_59_75# 0.0809f
C5 X VPWR 0.111f
C6 B X 0.00276f
C7 VPB VPWR 0.0729f
C8 B VPB 0.0629f
C9 A X 1.68e-19
C10 A VPB 0.0806f
C11 VGND VPWR 0.0461f
C12 VGND B 0.0115f
C13 a_145_75# VPWR 6.31e-19
C14 a_59_75# X 0.109f
C15 VGND A 0.0147f
C16 a_59_75# VPB 0.0563f
C17 VPB X 0.0127f
C18 VGND a_59_75# 0.116f
C19 a_145_75# a_59_75# 0.00658f
C20 VGND X 0.0993f
C21 a_145_75# X 5.76e-19
C22 VGND VPB 0.008f
C23 B VPWR 0.0117f
C24 VGND a_145_75# 0.00468f
C25 VGND VNB 0.311f
C26 X VNB 0.1f
C27 B VNB 0.113f
C28 A VNB 0.174f
C29 VPWR VNB 0.273f
C30 VPB VNB 0.516f
C31 a_59_75# VNB 0.177f
.ends

.subckt sky130_fd_sc_hd__nor4_1 A B C D VGND VNB VPB VPWR Y a_297_297# a_191_297#
+ a_109_297#
X0 Y B VGND VNB sky130_fd_pr__nfet_01v8 ad=0.0878 pd=0.92 as=0.0894 ps=0.925 w=0.65 l=0.15
X1 a_191_297# C a_109_297# VPB sky130_fd_pr__pfet_01v8_hvt ad=0.19 pd=1.38 as=0.13 ps=1.26 w=1 l=0.15
X2 VPWR A a_297_297# VPB sky130_fd_pr__pfet_01v8_hvt ad=0.26 pd=2.52 as=0.135 ps=1.27 w=1 l=0.15