* NGSPICE file created from analog_therm.ext - technology: sky130A

.subckt sky130_fd_pr__nfet_01v8_JLSX9N a_n317_n216# a_n157_n130# a_n215_n42# a_157_n42#
X0 a_157_n42# a_n157_n130# a_n215_n42# a_n317_n216# sky130_fd_pr__nfet_01v8 ad=0.122 pd=1.42 as=0.122 ps=1.42 w=0.42 l=1.57
C0 a_n157_n130# a_157_n42# 0.0179f
C1 a_n215_n42# a_157_n42# 0.0166f
C2 a_n215_n42# a_n157_n130# 0.0179f
C3 a_157_n42# a_n317_n216# 0.0832f
C4 a_n215_n42# a_n317_n216# 0.0832f
C5 a_n157_n130# a_n317_n216# 1.03f
.ends

.subckt sky130_fd_pr__pfet_01v8_XYZSMQ a_n33_n255# a_15_n158# w_n211_n377# a_n73_n158#
+ VSUBS
X0 a_15_n158# a_n33_n255# a_n73_n158# w_n211_n377# sky130_fd_pr__pfet_01v8 ad=0.458 pd=3.74 as=0.458 ps=3.74 w=1.58 l=0.15
C0 w_n211_n377# a_n33_n255# 0.24f
C1 a_15_n158# a_n33_n255# 0.0271f
C2 w_n211_n377# a_n73_n158# 0.117f
C3 a_15_n158# a_n73_n158# 0.254f
C4 a_15_n158# w_n211_n377# 0.117f
C5 a_n33_n255# a_n73_n158# 0.0271f
C6 a_15_n158# VSUBS 0.0732f
C7 a_n73_n158# VSUBS 0.0732f
C8 a_n33_n255# VSUBS 0.118f
C9 w_n211_n377# VSUBS 1.43f
.ends

.subckt sky130_fd_pr__pfet_01v8_AZD9DW w_n353_n261# a_n157_n139# a_n215_n42# a_157_n42#
+ VSUBS
X0 a_157_n42# a_n157_n139# a_n215_n42# w_n353_n261# sky130_fd_pr__pfet_01v8 ad=0.122 pd=1.42 as=0.122 ps=1.42 w=0.42 l=1.57
C0 w_n353_n261# a_n157_n139# 0.611f
C1 a_157_n42# a_n157_n139# 0.0179f
C2 w_n353_n261# a_n215_n42# 0.0498f
C3 a_157_n42# a_n215_n42# 0.0166f
C4 a_157_n42# w_n353_n261# 0.0498f
C5 a_n157_n139# a_n215_n42# 0.0179f
C6 a_157_n42# VSUBS 0.0329f
C7 a_n215_n42# VSUBS 0.0329f
C8 a_n157_n139# VSUBS 0.446f
C9 w_n353_n261# VSUBS 1.62f
.ends

.subckt sky130_fd_pr__nfet_01v8_T8HSQ7 a_15_n157# a_n175_n331# a_n33_n245# a_n73_n157#
X0 a_15_n157# a_n33_n245# a_n73_n157# a_n175_n331# sky130_fd_pr__nfet_01v8 ad=0.455 pd=3.72 as=0.455 ps=3.72 w=1.57 l=0.15
C0 a_n33_n245# a_n73_n157# 0.0289f
C1 a_n33_n245# a_15_n157# 0.0289f
C2 a_n73_n157# a_15_n157# 0.253f
C3 a_15_n157# a_n175_n331# 0.19f
C4 a_n73_n157# a_n175_n331# 0.19f
C5 a_n33_n245# a_n175_n331# 0.346f
.ends

.subckt th09 V09 Vin m1_891_n977# Vp m1_1725_85# Vn
XXM0 Vn Vin Vn m1_891_n977# sky130_fd_pr__nfet_01v8_JLSX9N
XXM1 Vin Vp Vp m1_891_n977# Vn sky130_fd_pr__pfet_01v8_XYZSMQ
XXM2 Vp m1_891_n977# Vp m1_1725_85# Vn sky130_fd_pr__pfet_01v8_AZD9DW
XXM3 Vp m1_891_n977# V09 m1_1725_85# Vn sky130_fd_pr__pfet_01v8_AZD9DW
XXM4 V09 Vn m1_891_n977# Vn sky130_fd_pr__nfet_01v8_T8HSQ7
C0 m1_891_n977# Vp 0.469f
C1 m1_891_n977# m1_1725_85# 0.0672f
C2 m1_891_n977# V09 0.291f
C3 Vin Vp 0.162f
C4 Vin m1_1725_85# 9.1e-19
C5 Vin V09 0.00135f
C6 Vp m1_1725_85# 0.14f
C7 Vp V09 0.131f
C8 V09 m1_1725_85# 0.0153f
C9 Vin m1_891_n977# 0.208f
C10 Vin Vn 1.36f
C11 m1_891_n977# Vn 1.29f
C12 V09 Vn 0.467f
C13 Vp Vn 4.41f
C14 m1_1725_85# Vn 0.13f
.ends

.subckt sky130_fd_pr__pfet_01v8_FP437E w_n521_n261# a_n383_n42# a_n325_n139# a_325_n42#
+ VSUBS
X0 a_325_n42# a_n325_n139# a_n383_n42# w_n521_n261# sky130_fd_pr__pfet_01v8 ad=0.122 pd=1.42 as=0.122 ps=1.42 w=0.42 l=3.25
C0 a_n325_n139# w_n521_n261# 1.13f
C1 a_n325_n139# a_n383_n42# 0.0222f
C2 a_325_n42# a_n325_n139# 0.0222f
C3 a_n383_n42# w_n521_n261# 0.0498f
C4 a_325_n42# w_n521_n261# 0.0498f
C5 a_325_n42# a_n383_n42# 0.00865f
C6 a_325_n42# VSUBS 0.0355f
C7 a_n383_n42# VSUBS 0.0355f
C8 a_n325_n139# VSUBS 0.87f
C9 w_n521_n261# VSUBS 2.3f
.ends

.subckt sky130_fd_pr__nfet_01v8_L7T3GD a_n33_n130# a_15_n42# a_n175_n216# a_n73_n42#
X0 a_15_n42# a_n33_n130# a_n73_n42# a_n175_n216# sky130_fd_pr__nfet_01v8 ad=0.122 pd=1.42 as=0.122 ps=1.42 w=0.42 l=0.15
C0 a_n73_n42# a_n33_n130# 0.0209f
C1 a_n73_n42# a_15_n42# 0.0699f
C2 a_15_n42# a_n33_n130# 0.0209f
C3 a_15_n42# a_n175_n216# 0.0729f
C4 a_n73_n42# a_n175_n216# 0.0729f
C5 a_n33_n130# a_n175_n216# 0.338f
.ends

.subckt preamp Vp Vin Vn Vpamp
XXM0 Vpamp Vpamp Vin Vn Vpamp sky130_fd_pr__pfet_01v8_FP437E
XXM1 Vin Vpamp Vpamp Vp sky130_fd_pr__nfet_01v8_L7T3GD
C0 Vin Vn 0.0405f
C1 Vn Vpamp 0.0667f
C2 Vin Vp 0.116f
C3 Vin Vpamp 0.665f
C4 Vpamp Vp 0.116f
C5 Vin 0 1.35f
C6 Vpamp 0 2.29f
C7 Vp 0 0.324f
C8 Vn 0 0.123f
.ends

.subckt sky130_fd_pr__pfet_01v8_3QB9EZ a_n296_n139# a_n354_n42# a_296_n42# w_n492_n261#
+ VSUBS
X0 a_296_n42# a_n296_n139# a_n354_n42# w_n492_n261# sky130_fd_pr__pfet_01v8 ad=0.122 pd=1.42 as=0.122 ps=1.42 w=0.42 l=2.96
C0 a_n296_n139# w_n492_n261# 1.04f
C1 a_n296_n139# a_296_n42# 0.0218f
C2 w_n492_n261# a_296_n42# 0.0498f
C3 a_n296_n139# a_n354_n42# 0.0218f
C4 w_n492_n261# a_n354_n42# 0.0498f
C5 a_296_n42# a_n354_n42# 0.00943f
C6 a_296_n42# VSUBS 0.0352f
C7 a_n354_n42# VSUBS 0.0352f
C8 a_n296_n139# VSUBS 0.797f
C9 w_n492_n261# VSUBS 2.19f
.ends

.subckt sky130_fd_pr__nfet_01v8_J2SMPG a_n33_n398# a_15_n310# a_n175_n484# a_n73_n310#
X0 a_15_n310# a_n33_n398# a_n73_n310# a_n175_n484# sky130_fd_pr__nfet_01v8 ad=0.899 pd=6.78 as=0.899 ps=6.78 w=3.1 l=0.15
C0 a_n73_n310# a_n33_n398# 0.0365f
C1 a_n73_n310# a_15_n310# 0.496f
C2 a_n33_n398# a_15_n310# 0.0365f
C3 a_15_n310# a_n175_n484# 0.345f
C4 a_n73_n310# a_n175_n484# 0.345f
C5 a_n33_n398# a_n175_n484# 0.349f
.ends

.subckt sky130_fd_pr__nfet_01v8_G45C34 a_297_n48# a_n297_n136# a_n457_n222# a_n355_n48#
X0 a_297_n48# a_n297_n136# a_n355_n48# a_n457_n222# sky130_fd_pr__nfet_01v8 ad=0.139 pd=1.54 as=0.139 ps=1.54 w=0.48 l=2.97
C0 a_n355_n48# a_n297_n136# 0.0239f
C1 a_n355_n48# a_297_n48# 0.0107f
C2 a_n297_n136# a_297_n48# 0.0239f
C3 a_297_n48# a_n457_n222# 0.0929f
C4 a_n355_n48# a_n457_n222# 0.0929f
C5 a_n297_n136# a_n457_n222# 1.8f
.ends

.subckt sky130_fd_pr__pfet_01v8_XA2NHL a_15_n310# w_n211_n529# a_n73_n310# a_n33_n407#
+ VSUBS
X0 a_15_n310# a_n33_n407# a_n73_n310# w_n211_n529# sky130_fd_pr__pfet_01v8 ad=0.899 pd=6.78 as=0.899 ps=6.78 w=3.1 l=0.15
C0 w_n211_n529# a_n73_n310# 0.21f
C1 a_15_n310# a_n73_n310# 0.496f
C2 a_n73_n310# a_n33_n407# 0.0346f
C3 w_n211_n529# a_15_n310# 0.21f
C4 w_n211_n529# a_n33_n407# 0.241f
C5 a_15_n310# a_n33_n407# 0.0346f
C6 a_15_n310# VSUBS 0.135f
C7 a_n73_n310# VSUBS 0.135f
C8 a_n33_n407# VSUBS 0.121f
C9 w_n211_n529# VSUBS 1.97f
.ends

.subckt th01 Vp Vin Vout m1_931_n929# Vn
XXM2 Vin Vp m1_931_n929# Vp Vn sky130_fd_pr__pfet_01v8_3QB9EZ
XXM3 Vin m1_931_n929# Vn Vn sky130_fd_pr__nfet_01v8_J2SMPG
XXM4 Vn m1_931_n929# Vn Vout sky130_fd_pr__nfet_01v8_G45C34
XXM5 Vp Vp Vout m1_931_n929# Vn sky130_fd_pr__pfet_01v8_XA2NHL
C0 m1_931_n929# Vp 0.324f
C1 Vin m1_931_n929# 0.206f
C2 Vp Vout 0.0877f
C3 Vin Vout 5.64e-20
C4 m1_931_n929# Vout 0.202f
C5 Vin Vp 0.391f
C6 Vin Vn 1.12f
C7 m1_931_n929# Vn 2.31f
C8 Vp Vn 4.35f
C9 Vout Vn 0.405f
.ends

.subckt sky130_fd_pr__pfet_01v8_NZD9V2 w_n243_n261# a_47_n42# a_n47_n139# a_n105_n42#
+ VSUBS
X0 a_47_n42# a_n47_n139# a_n105_n42# w_n243_n261# sky130_fd_pr__pfet_01v8 ad=0.122 pd=1.42 as=0.122 ps=1.42 w=0.42 l=0.47
C0 a_47_n42# a_n105_n42# 0.0406f
C1 a_n105_n42# a_n47_n139# 0.00866f
C2 w_n243_n261# a_n105_n42# 0.0499f
C3 a_47_n42# a_n47_n139# 0.00866f
C4 a_47_n42# w_n243_n261# 0.0499f
C5 w_n243_n261# a_n47_n139# 0.27f
C6 a_47_n42# VSUBS 0.0297f
C7 a_n105_n42# VSUBS 0.0297f
C8 a_n47_n139# VSUBS 0.168f
C9 w_n243_n261# VSUBS 1.17f
.ends

.subckt sky130_fd_pr__pfet_01v8_3PDS9J a_n102_n42# a_44_n42# a_n44_n139# w_n240_n261#
+ VSUBS
X0 a_44_n42# a_n44_n139# a_n102_n42# w_n240_n261# sky130_fd_pr__pfet_01v8 ad=0.122 pd=1.42 as=0.122 ps=1.42 w=0.42 l=0.44
C0 a_44_n42# a_n102_n42# 0.0423f
C1 a_n102_n42# a_n44_n139# 0.00823f
C2 w_n240_n261# a_n102_n42# 0.0499f
C3 a_44_n42# a_n44_n139# 0.00823f
C4 a_44_n42# w_n240_n261# 0.0499f
C5 w_n240_n261# a_n44_n139# 0.261f
C6 a_44_n42# VSUBS 0.0296f
C7 a_n102_n42# VSUBS 0.0296f
C8 a_n44_n139# VSUBS 0.16f
C9 w_n240_n261# VSUBS 1.15f
.ends

.subckt sky130_fd_pr__nfet_01v8_97T34Z a_n73_n46# a_n175_n220# a_n33_n134# a_15_n46#
X0 a_15_n46# a_n33_n134# a_n73_n46# a_n175_n220# sky130_fd_pr__nfet_01v8 ad=0.133 pd=1.5 as=0.133 ps=1.5 w=0.46 l=0.15
C0 a_15_n46# a_n73_n46# 0.0763f
C1 a_n33_n134# a_15_n46# 0.0212f
C2 a_n33_n134# a_n73_n46# 0.0212f
C3 a_15_n46# a_n175_n220# 0.0769f
C4 a_n73_n46# a_n175_n220# 0.0769f
C5 a_n33_n134# a_n175_n220# 0.338f
.ends

.subckt th06 Vp Vin V06 m1_528_n874# Vn
XXM0 Vin m1_528_n874# Vn Vn sky130_fd_pr__nfet_01v8_L7T3GD
XXM1 Vp m1_528_n874# Vin Vp Vn sky130_fd_pr__pfet_01v8_NZD9V2
XXM2 Vp V06 m1_528_n874# Vp Vn sky130_fd_pr__pfet_01v8_3PDS9J
XXM3 Vn Vn m1_528_n874# V06 sky130_fd_pr__nfet_01v8_97T34Z
C0 Vp V06 0.109f
C1 Vin m1_528_n874# 0.224f
C2 V06 Vin 2.39e-21
C3 V06 m1_528_n874# 0.135f
C4 Vp Vin 0.192f
C5 Vp m1_528_n874# 0.467f
C6 V06 Vn 0.353f
C7 m1_528_n874# Vn 0.971f
C8 Vin Vn 0.726f
C9 Vp Vn 2.62f
.ends

.subckt sky130_fd_pr__nfet_01v8_VGVEGU a_n74_n42# a_n33_n130# a_n176_n216# a_16_n42#
X0 a_16_n42# a_n33_n130# a_n74_n42# a_n176_n216# sky130_fd_pr__nfet_01v8 ad=0.122 pd=1.42 as=0.122 ps=1.42 w=0.42 l=0.16
C0 a_n33_n130# a_16_n42# 0.0191f
C1 a_16_n42# a_n74_n42# 0.0684f
C2 a_n33_n130# a_n74_n42# 0.0191f
C3 a_16_n42# a_n176_n216# 0.0737f
C4 a_n74_n42# a_n176_n216# 0.0737f
C5 a_n33_n130# a_n176_n216# 0.338f
.ends

.subckt sky130_fd_pr__pfet_01v8_EDPLE3 a_15_n42# w_n211_n261# a_n33_n139# a_n73_n42#
+ VSUBS
X0 a_15_n42# a_n33_n139# a_n73_n42# w_n211_n261# sky130_fd_pr__pfet_01v8 ad=0.122 pd=1.42 as=0.122 ps=1.42 w=0.42 l=0.15
C0 w_n211_n261# a_n73_n42# 0.0463f
C1 a_15_n42# a_n33_n139# 0.0192f
C2 a_n73_n42# a_n33_n139# 0.0192f
C3 w_n211_n261# a_n33_n139# 0.236f
C4 a_15_n42# a_n73_n42# 0.0699f
C5 a_15_n42# w_n211_n261# 0.0463f
C6 a_15_n42# VSUBS 0.0263f
C7 a_n73_n42# VSUBS 0.0263f
C8 a_n33_n139# VSUBS 0.115f
C9 w_n211_n261# VSUBS 1.03f
.ends

.subckt th07 Vin V07 Vp m1_400_n1066# Vn
XXM0 m1_400_n1066# Vin Vn Vn sky130_fd_pr__nfet_01v8_VGVEGU
XXM1 m1_400_n1066# Vp Vin Vp Vn sky130_fd_pr__pfet_01v8_EDPLE3
XXM2 Vp V07 m1_400_n1066# Vp Vn sky130_fd_pr__pfet_01v8_NZD9V2
XXM3 Vn Vn m1_400_n1066# V07 sky130_fd_pr__nfet_01v8_97T34Z
C0 Vp V07 0.102f
C1 Vp m1_400_n1066# 0.32f
C2 m1_400_n1066# V07 0.167f
C3 Vin Vp 0.212f
C4 Vin V07 6.52e-19
C5 Vin m1_400_n1066# 0.436f
C6 Vin Vn 0.75f
C7 m1_400_n1066# Vn 0.943f
C8 V07 Vn 0.395f
C9 Vp Vn 2.43f
.ends

.subckt sky130_fd_pr__nfet_01v8_LNCAWD a_n67_n130# a_n125_n42# a_67_n42# a_n227_n216#
X0 a_67_n42# a_n67_n130# a_n125_n42# a_n227_n216# sky130_fd_pr__nfet_01v8 ad=0.122 pd=1.42 as=0.122 ps=1.42 w=0.42 l=0.67
C0 a_n67_n130# a_67_n42# 0.0112f
C1 a_n67_n130# a_n125_n42# 0.0112f
C2 a_67_n42# a_n125_n42# 0.0322f
C3 a_67_n42# a_n227_n216# 0.0807f
C4 a_n125_n42# a_n227_n216# 0.0807f
C5 a_n67_n130# a_n227_n216# 0.533f
.ends

.subckt sky130_fd_pr__pfet_01v8_M6KFPY a_n73_n67# a_n33_n164# a_15_n67# w_n211_n286#
+ VSUBS
X0 a_15_n67# a_n33_n164# a_n73_n67# w_n211_n286# sky130_fd_pr__pfet_01v8 ad=0.194 pd=1.92 as=0.194 ps=1.92 w=0.67 l=0.15
C0 a_15_n67# w_n211_n286# 0.0616f
C1 w_n211_n286# a_n73_n67# 0.0616f
C2 a_15_n67# a_n73_n67# 0.11f
C3 w_n211_n286# a_n33_n164# 0.238f
C4 a_15_n67# a_n33_n164# 0.0213f
C5 a_n73_n67# a_n33_n164# 0.0213f
C6 a_15_n67# VSUBS 0.0364f
C7 a_n73_n67# VSUBS 0.0364f
C8 a_n33_n164# VSUBS 0.116f
C9 w_n211_n286# VSUBS 1.11f
.ends

.subckt sky130_fd_pr__nfet_01v8_NCP4B2 a_n73_n47# a_n175_n221# a_n33_n135# a_15_n47#
X0 a_15_n47# a_n33_n135# a_n73_n47# a_n175_n221# sky130_fd_pr__nfet_01v8 ad=0.136 pd=1.52 as=0.136 ps=1.52 w=0.47 l=0.15
C0 a_n33_n135# a_15_n47# 0.0213f
C1 a_n33_n135# a_n73_n47# 0.0213f
C2 a_15_n47# a_n73_n47# 0.0779f
C3 a_15_n47# a_n175_n221# 0.0779f
C4 a_n73_n47# a_n175_n221# 0.0779f
C5 a_n33_n135# a_n175_n221# 0.338f
.ends

.subckt th08 V08 Vin m1_451_n1105# Vp Vn
XXM0 Vin m1_451_n1105# Vn Vn sky130_fd_pr__nfet_01v8_LNCAWD
XXM1 m1_451_n1105# Vin Vp Vp Vn sky130_fd_pr__pfet_01v8_M6KFPY
XXM2 Vp V08 m1_451_n1105# Vp Vn sky130_fd_pr__pfet_01v8_NZD9V2
XXM3 Vn Vn m1_451_n1105# V08 sky130_fd_pr__nfet_01v8_NCP4B2
C0 V08 Vp 0.0989f
C1 Vin m1_451_n1105# 0.365f
C2 m1_451_n1105# V08 0.175f
C3 Vin V08 2.59e-19
C4 m1_451_n1105# Vp 0.176f
C5 Vin Vp 0.125f
C6 m1_451_n1105# Vn 0.838f
C7 Vin Vn 0.981f
C8 V08 Vn 0.403f
C9 Vp Vn 2.37f
.ends

.subckt sky130_fd_pr__pfet_01v8_XGS3BL a_n73_n100# a_15_n100# w_n211_n319# a_n33_n197#
+ VSUBS
X0 a_15_n100# a_n33_n197# a_n73_n100# w_n211_n319# sky130_fd_pr__pfet_01v8 ad=0.29 pd=2.58 as=0.29 ps=2.58 w=1 l=0.15
C0 a_n73_n100# a_n33_n197# 0.0281f
C1 a_n73_n100# a_15_n100# 0.162f
C2 a_15_n100# a_n33_n197# 0.0262f
C3 a_n73_n100# w_n211_n319# 0.0813f
C4 a_n33_n197# w_n211_n319# 0.246f
C5 a_15_n100# w_n211_n319# 0.0815f
C6 a_15_n100# VSUBS 0.0492f
C7 a_n73_n100# VSUBS 0.0487f
C8 a_n33_n197# VSUBS 0.129f
C9 w_n211_n319# VSUBS 1.23f
.ends

.subckt sky130_fd_pr__pfet_01v8_QPDSQG a_n87_n42# w_n225_n261# a_n33_n139# a_29_n42#
+ VSUBS
X0 a_29_n42# a_n33_n139# a_n87_n42# w_n225_n261# sky130_fd_pr__pfet_01v8 ad=0.122 pd=1.42 as=0.122 ps=1.42 w=0.42 l=0.29
C0 a_n87_n42# a_n33_n139# 0.00625f
C1 a_n87_n42# a_29_n42# 0.0532f
C2 a_29_n42# a_n33_n139# 0.00625f
C3 a_n87_n42# w_n225_n261# 0.0499f
C4 a_n33_n139# w_n225_n261# 0.229f
C5 a_29_n42# w_n225_n261# 0.0499f
C6 a_29_n42# VSUBS 0.029f
C7 a_n87_n42# VSUBS 0.029f
C8 a_n33_n139# VSUBS 0.128f
C9 w_n225_n261# VSUBS 1.09f
.ends

.subckt sky130_fd_pr__pfet_01v8_M479BZ a_15_n42# w_n211_n261# a_n33_n139# a_n73_n42#
+ VSUBS
X0 a_15_n42# a_n33_n139# a_n73_n42# w_n211_n261# sky130_fd_pr__pfet_01v8 ad=0.122 pd=1.42 as=0.122 ps=1.42 w=0.42 l=0.15
C0 a_n73_n42# a_n33_n139# 0.0192f
C1 a_n73_n42# a_15_n42# 0.0699f
C2 a_15_n42# a_n33_n139# 0.0192f
C3 a_n73_n42# w_n211_n261# 0.0463f
C4 a_n33_n139# w_n211_n261# 0.236f
C5 a_15_n42# w_n211_n261# 0.0463f
C6 a_15_n42# VSUBS 0.0263f
C7 a_n73_n42# VSUBS 0.0263f
C8 a_n33_n139# VSUBS 0.115f
C9 w_n211_n261# VSUBS 1.03f
.ends

.subckt th10 V10 Vin m1_718_n418# Vp Vn m1_878_n414#
XXM0 Vn m1_878_n414# Vp Vn Vn sky130_fd_pr__pfet_01v8_XGS3BL
XXM1 Vin m1_878_n414# Vn m1_718_n418# sky130_fd_pr__nfet_01v8_L7T3GD
XXM2 Vp Vp Vin m1_718_n418# Vn sky130_fd_pr__pfet_01v8_QPDSQG
XXM3 V10 Vp m1_718_n418# Vp Vn sky130_fd_pr__pfet_01v8_M479BZ
XXM4 m1_718_n418# V10 Vn Vn sky130_fd_pr__nfet_01v8_L7T3GD
C0 m1_878_n414# V10 9.3e-21
C1 Vn Vp 0.468f
C2 Vin V10 1.33e-19
C3 Vn m1_718_n418# 0.14f
C4 m1_878_n414# Vp 0.0409f
C5 m1_878_n414# m1_718_n418# 0.0145f
C6 Vin Vp 0.301f
C7 Vn m1_878_n414# 0.157f
C8 Vin m1_718_n418# 0.308f
C9 Vp V10 0.0825f
C10 Vn Vin 0.0481f
C11 m1_718_n418# V10 0.191f
C12 Vn V10 0.0667f
C13 Vin m1_878_n414# 0.0391f
C14 Vp m1_718_n418# 0.272f
C15 Vin 0 0.692f
C16 m1_718_n418# 0 0.567f
C17 V10 0 0.319f
C18 Vn 0 0.208f
C19 Vp 0 3.6f
C20 m1_878_n414# 0 0.16f
.ends

.subckt sky130_fd_pr__pfet_01v8_XGAKDL a_15_n200# w_n211_n419# a_n33_n297# a_n73_n200#
+ VSUBS
X0 a_15_n200# a_n33_n297# a_n73_n200# w_n211_n419# sky130_fd_pr__pfet_01v8 ad=0.58 pd=4.58 as=0.58 ps=4.58 w=2 l=0.15
C0 a_n33_n297# a_15_n200# 0.0293f
C1 a_15_n200# w_n211_n419# 0.143f
C2 a_n73_n200# a_15_n200# 0.321f
C3 a_n33_n297# w_n211_n419# 0.24f
C4 a_n33_n297# a_n73_n200# 0.0293f
C5 a_n73_n200# w_n211_n419# 0.143f
C6 a_15_n200# VSUBS 0.0902f
C7 a_n73_n200# VSUBS 0.0902f
C8 a_n33_n297# VSUBS 0.119f
C9 w_n211_n419# VSUBS 1.58f
.ends

.subckt sky130_fd_pr__nfet_01v8_ZFH27D a_50_n42# a_n210_n216# a_n108_n42# a_n50_n130#
X0 a_50_n42# a_n50_n130# a_n108_n42# a_n210_n216# sky130_fd_pr__nfet_01v8 ad=0.122 pd=1.42 as=0.122 ps=1.42 w=0.42 l=0.5
C0 a_n108_n42# a_n50_n130# 0.00909f
C1 a_n108_n42# a_50_n42# 0.0391f
C2 a_50_n42# a_n50_n130# 0.00909f
C3 a_50_n42# a_n210_n216# 0.0801f
C4 a_n108_n42# a_n210_n216# 0.0801f
C5 a_n50_n130# a_n210_n216# 0.439f
.ends

.subckt sky130_fd_pr__pfet_01v8_E7ZT25 a_15_n43# w_n211_n262# a_n73_n43# a_n33_n140#
+ VSUBS
X0 a_15_n43# a_n33_n140# a_n73_n43# w_n211_n262# sky130_fd_pr__pfet_01v8 ad=0.125 pd=1.44 as=0.125 ps=1.44 w=0.43 l=0.15
C0 a_n33_n140# a_15_n43# 0.0193f
C1 a_15_n43# w_n211_n262# 0.0469f
C2 a_n73_n43# a_15_n43# 0.0715f
C3 a_n33_n140# w_n211_n262# 0.236f
C4 a_n33_n140# a_n73_n43# 0.0193f
C5 a_n73_n43# w_n211_n262# 0.0469f
C6 a_15_n43# VSUBS 0.0267f
C7 a_n73_n43# VSUBS 0.0267f
C8 a_n33_n140# VSUBS 0.115f
C9 w_n211_n262# VSUBS 1.03f
.ends

.subckt sky130_fd_pr__pfet_01v8_JM8GTH a_50_n42# w_n246_n261# a_n50_n139# a_n108_n42#
+ VSUBS
X0 a_50_n42# a_n50_n139# a_n108_n42# w_n246_n261# sky130_fd_pr__pfet_01v8 ad=0.122 pd=1.42 as=0.122 ps=1.42 w=0.42 l=0.5
C0 a_n50_n139# a_50_n42# 0.00909f
C1 a_50_n42# w_n246_n261# 0.0499f
C2 a_n108_n42# a_50_n42# 0.0391f
C3 a_n50_n139# w_n246_n261# 0.279f
C4 a_n50_n139# a_n108_n42# 0.00909f
C5 a_n108_n42# w_n246_n261# 0.0499f
C6 a_50_n42# VSUBS 0.0298f
C7 a_n108_n42# VSUBS 0.0298f
C8 a_n50_n139# VSUBS 0.175f
C9 w_n246_n261# VSUBS 1.18f
.ends

.subckt sky130_fd_pr__nfet_01v8_L9ESAD a_n175_n224# a_n73_n50# a_n33_n138# a_15_n50#
X0 a_15_n50# a_n33_n138# a_n73_n50# a_n175_n224# sky130_fd_pr__nfet_01v8 ad=0.145 pd=1.58 as=0.145 ps=1.58 w=0.5 l=0.15
C0 a_n73_n50# a_n33_n138# 0.0216f
C1 a_n73_n50# a_15_n50# 0.0826f
C2 a_15_n50# a_n33_n138# 0.0216f
C3 a_15_n50# a_n175_n224# 0.081f
C4 a_n73_n50# a_n175_n224# 0.081f
C5 a_n33_n138# a_n175_n224# 0.339f
.ends

.subckt th11 V11 Vin Vp m1_717_301# m1_509_303# Vn
XXM0 m1_717_301# Vp Vn Vn Vn sky130_fd_pr__pfet_01v8_XGAKDL
XXM1 m1_717_301# Vn m1_509_303# Vin sky130_fd_pr__nfet_01v8_ZFH27D
XXM2 m1_509_303# Vp Vp Vin Vn sky130_fd_pr__pfet_01v8_E7ZT25
XXM3 V11 Vp m1_509_303# Vp Vn sky130_fd_pr__pfet_01v8_JM8GTH
XXM4 Vn Vn m1_509_303# V11 sky130_fd_pr__nfet_01v8_L9ESAD
C0 Vin Vp 0.258f
C1 m1_717_301# Vp 0.0487f
C2 Vin m1_509_303# 0.248f
C3 m1_509_303# m1_717_301# 0.0301f
C4 V11 Vp 0.0686f
C5 Vin m1_717_301# 0.0345f
C6 m1_509_303# V11 0.0742f
C7 Vin V11 0.00112f
C8 m1_717_301# V11 1.71e-20
C9 m1_509_303# Vp 0.352f
C10 Vin Vn 0.856f
C11 m1_509_303# Vn 0.717f
C12 V11 Vn 0.485f
C13 Vp Vn 4.47f
C14 m1_717_301# Vn 0.299f
.ends

.subckt sky130_fd_pr__pfet_01v8_P28Q2U a_n33_n232# a_15_n135# w_n211_n354# a_n73_n135#
+ VSUBS
X0 a_15_n135# a_n33_n232# a_n73_n135# w_n211_n354# sky130_fd_pr__pfet_01v8 ad=0.391 pd=3.28 as=0.391 ps=3.28 w=1.35 l=0.15
C0 a_15_n135# a_n33_n232# 0.0258f
C1 a_n73_n135# a_n33_n232# 0.0258f
C2 a_15_n135# w_n211_n354# 0.103f
C3 w_n211_n354# a_n73_n135# 0.103f
C4 w_n211_n354# a_n33_n232# 0.24f
C5 a_15_n135# a_n73_n135# 0.218f
C6 a_15_n135# VSUBS 0.0639f
C7 a_n73_n135# VSUBS 0.0639f
C8 a_n33_n232# VSUBS 0.118f
C9 w_n211_n354# VSUBS 1.35f
.ends

.subckt sky130_fd_pr__nfet_01v8_HZA4VB a_n360_n216# a_n200_n130# a_200_n42# a_n258_n42#
X0 a_200_n42# a_n200_n130# a_n258_n42# a_n360_n216# sky130_fd_pr__nfet_01v8 ad=0.122 pd=1.42 as=0.122 ps=1.42 w=0.42 l=2
C0 a_200_n42# a_n258_n42# 0.0134f
C1 a_n200_n130# a_200_n42# 0.0196f
C2 a_n200_n130# a_n258_n42# 0.0196f
C3 a_200_n42# a_n360_n216# 0.0841f
C4 a_n258_n42# a_n360_n216# 0.0841f
C5 a_n200_n130# a_n360_n216# 1.26f
.ends

.subckt sky130_fd_pr__pfet_01v8_WV9GCW a_n158_n42# w_n296_n261# a_n100_n139# a_100_n42#
+ VSUBS
X0 a_100_n42# a_n100_n139# a_n158_n42# w_n296_n261# sky130_fd_pr__pfet_01v8 ad=0.122 pd=1.42 as=0.122 ps=1.42 w=0.42 l=1
C0 a_100_n42# a_n100_n139# 0.0144f
C1 a_n158_n42# a_n100_n139# 0.0144f
C2 a_100_n42# w_n296_n261# 0.0499f
C3 w_n296_n261# a_n158_n42# 0.0499f
C4 w_n296_n261# a_n100_n139# 0.434f
C5 a_100_n42# a_n158_n42# 0.024f
C6 a_100_n42# VSUBS 0.0315f
C7 a_n158_n42# VSUBS 0.0315f
C8 a_n100_n139# VSUBS 0.302f
C9 w_n296_n261# VSUBS 1.38f
.ends

.subckt sky130_fd_pr__nfet_01v8_648S5X a_n73_n100# a_n33_n188# a_15_n100# a_n175_n274#
X0 a_15_n100# a_n33_n188# a_n73_n100# a_n175_n274# sky130_fd_pr__nfet_01v8 ad=0.29 pd=2.58 as=0.29 ps=2.58 w=1 l=0.15
C0 a_15_n100# a_n73_n100# 0.162f
C1 a_n33_n188# a_15_n100# 0.0254f
C2 a_n33_n188# a_n73_n100# 0.0254f
C3 a_15_n100# a_n175_n274# 0.132f
C4 a_n73_n100# a_n175_n274# 0.132f
C5 a_n33_n188# a_n175_n274# 0.343f
.ends

.subckt th12 Vout Vin m1_532_n361# Vp m1_773_n853# Vn
XXM0 Vn m1_773_n853# Vp Vn Vn sky130_fd_pr__pfet_01v8_P28Q2U
XXM1 Vn Vin m1_773_n853# m1_532_n361# sky130_fd_pr__nfet_01v8_HZA4VB
XXM2 m1_532_n361# Vp Vp Vin Vn sky130_fd_pr__pfet_01v8_XGS3BL
XXM3 Vp Vp m1_532_n361# Vout Vn sky130_fd_pr__pfet_01v8_WV9GCW
XXM4 Vn m1_532_n361# Vout Vn sky130_fd_pr__nfet_01v8_648S5X
C0 Vin Vp 0.435f
C1 Vout Vin 4.83e-19
C2 m1_773_n853# Vin 0.102f
C3 m1_532_n361# Vin 0.399f
C4 Vout Vp 0.0968f
C5 m1_773_n853# Vp 0.0827f
C6 Vout m1_773_n853# 0.00284f
C7 m1_532_n361# Vp 0.226f
C8 Vout m1_532_n361# 0.181f
C9 m1_773_n853# m1_532_n361# 0.0208f
C10 m1_532_n361# Vn 1.04f
C11 Vout Vn 0.478f
C12 Vp Vn 4.59f
C13 Vin Vn 1.62f
C14 m1_773_n853# Vn 0.44f
.ends

.subckt sky130_fd_pr__nfet_01v8_L6G859 a_n288_n42# a_230_n42# a_n390_n216# a_n230_n130#
X0 a_230_n42# a_n230_n130# a_n288_n42# a_n390_n216# sky130_fd_pr__nfet_01v8 ad=0.122 pd=1.42 as=0.122 ps=1.42 w=0.42 l=2.3
C0 a_n230_n130# a_230_n42# 0.0204f
C1 a_n230_n130# a_n288_n42# 0.0204f
C2 a_230_n42# a_n288_n42# 0.0119f
C3 a_230_n42# a_n390_n216# 0.0846f
C4 a_n288_n42# a_n390_n216# 0.0846f
C5 a_n230_n130# a_n390_n216# 1.43f
.ends

.subckt sky130_fd_pr__pfet_01v8_XW9KDL a_n73_n230# a_n33_n327# a_15_n230# w_n211_n449#
+ VSUBS
X0 a_15_n230# a_n33_n327# a_n73_n230# w_n211_n449# sky130_fd_pr__pfet_01v8 ad=0.667 pd=5.18 as=0.667 ps=5.18 w=2.3 l=0.15
C0 a_n73_n230# a_15_n230# 0.369f
C1 w_n211_n449# a_n73_n230# 0.161f
C2 a_n33_n327# a_15_n230# 0.0338f
C3 w_n211_n449# a_n33_n327# 0.246f
C4 w_n211_n449# a_15_n230# 0.161f
C5 a_n73_n230# a_n33_n327# 0.0338f
C6 a_15_n230# VSUBS 0.102f
C7 a_n73_n230# VSUBS 0.102f
C8 a_n33_n327# VSUBS 0.129f
C9 w_n211_n449# VSUBS 1.69f
.ends

.subckt sky130_fd_pr__pfet_01v8_VZ9GC6 a_200_n42# w_n396_n261# a_n200_n139# a_n258_n42#
+ VSUBS
X0 a_200_n42# a_n200_n139# a_n258_n42# w_n396_n261# sky130_fd_pr__pfet_01v8 ad=0.122 pd=1.42 as=0.122 ps=1.42 w=0.42 l=2
C0 a_n258_n42# a_200_n42# 0.0134f
C1 w_n396_n261# a_n258_n42# 0.0498f
C2 a_n200_n139# a_200_n42# 0.0196f
C3 w_n396_n261# a_n200_n139# 0.743f
C4 w_n396_n261# a_200_n42# 0.0498f
C5 a_n258_n42# a_n200_n139# 0.0196f
C6 a_200_n42# VSUBS 0.0338f
C7 a_n258_n42# VSUBS 0.0338f
C8 a_n200_n139# VSUBS 0.554f
C9 w_n396_n261# VSUBS 1.79f
.ends

.subckt sky130_fd_pr__nfet_01v8_ATLS57 a_15_n200# a_n175_n374# a_n73_n200# a_n33_n288#
X0 a_15_n200# a_n33_n288# a_n73_n200# a_n175_n374# sky130_fd_pr__nfet_01v8 ad=0.58 pd=4.58 as=0.58 ps=4.58 w=2 l=0.15
C0 a_n33_n288# a_15_n200# 0.0357f
C1 a_n33_n288# a_n73_n200# 0.0336f
C2 a_15_n200# a_n73_n200# 0.321f
C3 a_15_n200# a_n175_n374# 0.232f
C4 a_n73_n200# a_n175_n374# 0.232f
C5 a_n33_n288# a_n175_n374# 0.358f
.ends

.subckt th13 Vout Vin m1_724_n958# m1_546_n454# Vp Vn
XXM0 m1_724_n958# Vn Vp Vn Vn sky130_fd_pr__pfet_01v8_XGS3BL
XXM1 m1_546_n454# m1_724_n958# Vn Vin sky130_fd_pr__nfet_01v8_L6G859
XXM2 m1_546_n454# Vin Vp Vp Vn sky130_fd_pr__pfet_01v8_XW9KDL
XXM3 Vout Vp m1_546_n454# Vp Vn sky130_fd_pr__pfet_01v8_VZ9GC6
XXM4 Vout Vn Vn m1_546_n454# sky130_fd_pr__nfet_01v8_ATLS57
C0 m1_724_n958# Vin 0.14f
C1 Vin Vn 0.126f
C2 m1_724_n958# Vout 0.00247f
C3 m1_724_n958# Vp 0.312f
C4 Vout Vn 0.147f
C5 Vp Vn 0.589f
C6 m1_724_n958# m1_546_n454# 0.0214f
C7 m1_546_n454# Vn 0.331f
C8 Vout Vin 0.00172f
C9 Vp Vin 0.151f
C10 m1_546_n454# Vin 0.349f
C11 Vp Vout 0.346f
C12 m1_724_n958# Vn 0.0967f
C13 m1_546_n454# Vout 0.546f
C14 m1_546_n454# Vp 0.574f
C15 Vout 0 0.513f
C16 Vn 0 0.573f
C17 m1_546_n454# 0 1.54f
C18 Vp 0 4.74f
C19 Vin 0 1.66f
C20 m1_724_n958# 0 0.188f
.ends

.subckt sky130_fd_pr__nfet_01v8_9GNSAK a_n33_n550# a_n125_n550# a_n227_n724# a_63_n550#
+ a_n63_n576#
X0 a_63_n550# a_n63_n576# a_n33_n550# a_n227_n724# sky130_fd_pr__nfet_01v8 ad=1.71 pd=11.6 as=0.908 ps=5.83 w=5.5 l=0.15
X1 a_n33_n550# a_n63_n576# a_n125_n550# a_n227_n724# sky130_fd_pr__nfet_01v8 ad=0.908 pd=5.83 as=1.71 ps=11.6 w=5.5 l=0.15
C0 a_63_n550# a_n33_n550# 0.809f
C1 a_n33_n550# a_n63_n576# 0.0599f
C2 a_63_n550# a_n63_n576# 0.0319f
C3 a_n125_n550# a_n33_n550# 0.809f
C4 a_n125_n550# a_n63_n576# 0.0232f
C5 a_63_n550# a_n227_n724# 0.596f
C6 a_n33_n550# a_n227_n724# 0.0778f
C7 a_n125_n550# a_n227_n724# 0.597f
C8 a_n63_n576# a_n227_n724# 0.3f
.ends

.subckt sky130_fd_pr__pfet_01v8_UTD9YE w_n1296_n261# a_n1158_n42# a_n1100_n139# a_1100_n42#
+ VSUBS
X0 a_1100_n42# a_n1100_n139# a_n1158_n42# w_n1296_n261# sky130_fd_pr__pfet_01v8 ad=0.122 pd=1.42 as=0.122 ps=1.42 w=0.42 l=11
C0 a_n1158_n42# w_n1296_n261# 0.0498f
C1 a_1100_n42# w_n1296_n261# 0.0498f
C2 a_n1100_n139# a_n1158_n42# 0.0251f
C3 a_n1100_n139# a_1100_n42# 0.0251f
C4 a_n1100_n139# w_n1296_n261# 3.52f
C5 a_1100_n42# VSUBS 0.0428f
C6 a_n1158_n42# VSUBS 0.0428f
C7 a_n1100_n139# VSUBS 2.83f
C8 w_n1296_n261# VSUBS 5.47f
.ends

.subckt sky130_fd_pr__nfet_01v8_VZ7MP4 a_n1158_n42# a_n1260_n216# a_n1100_n130# a_1100_n42#
X0 a_1100_n42# a_n1100_n130# a_n1158_n42# a_n1260_n216# sky130_fd_pr__nfet_01v8 ad=0.122 pd=1.42 as=0.122 ps=1.42 w=0.42 l=11
C0 a_1100_n42# a_n1100_n130# 0.0251f
C1 a_n1158_n42# a_n1100_n130# 0.0251f
C2 a_1100_n42# a_n1260_n216# 0.0931f
C3 a_n1158_n42# a_n1260_n216# 0.0931f
C4 a_n1100_n130# a_n1260_n216# 6.21f
.ends

.subckt sky130_fd_pr__pfet_01v8_UGSTRG a_n33_n1197# a_n76_n1100# w_n214_n1319# a_18_n1100#
+ VSUBS
X0 a_18_n1100# a_n33_n1197# a_n76_n1100# w_n214_n1319# sky130_fd_pr__pfet_01v8 ad=3.19 pd=22.6 as=3.19 ps=22.6 w=11 l=0.18
C0 a_18_n1100# a_n76_n1100# 1.64f
C1 a_n76_n1100# w_n214_n1319# 0.693f
C2 a_18_n1100# w_n214_n1319# 0.693f
C3 a_n33_n1197# a_n76_n1100# 0.0705f
C4 a_n33_n1197# a_18_n1100# 0.0705f
C5 a_n33_n1197# w_n214_n1319# 0.239f
C6 a_18_n1100# VSUBS 0.46f
C7 a_n76_n1100# VSUBS 0.46f
C8 a_n33_n1197# VSUBS 0.133f
C9 w_n214_n1319# VSUBS 4.79f
.ends

.subckt th02 Vout Vn Vp m1_4146_502# Vin m1_1199_9#
XXM0 Vn m1_4146_502# Vn m1_4146_502# Vin sky130_fd_pr__nfet_01v8_9GNSAK
XXM1 Vp m1_1199_9# Vin m1_4146_502# Vn sky130_fd_pr__pfet_01v8_UTD9YE
XXM2 m1_1199_9# Vn Vp Vp sky130_fd_pr__nfet_01v8_VZ7MP4
XXM3 m1_4146_502# Vout Vp Vp Vn sky130_fd_pr__pfet_01v8_UGSTRG
XXM4 Vn Vn m1_4146_502# Vout sky130_fd_pr__nfet_01v8_VZ7MP4
C0 m1_1199_9# m1_4146_502# 4.98e-19
C1 Vin Vp 0.3f
C2 Vin Vout 0.0111f
C3 Vout Vp 0.202f
C4 Vin m1_4146_502# 0.58f
C5 Vp m1_4146_502# 0.374f
C6 Vout m1_4146_502# 0.328f
C7 m1_1199_9# Vin 0.0993f
C8 m1_1199_9# Vp 0.155f
C9 Vout Vn 0.554f
C10 m1_4146_502# Vn 9.06f
C11 m1_1199_9# Vn 0.445f
C12 Vp Vn 16.7f
C13 Vin Vn 2.92f
.ends

.subckt sky130_fd_pr__pfet_01v8_XJ7SDL a_15_n450# w_n211_n669# a_n73_n450# a_n33_n547#
+ VSUBS
X0 a_15_n450# a_n33_n547# a_n73_n450# w_n211_n669# sky130_fd_pr__pfet_01v8 ad=1.3 pd=9.58 as=1.3 ps=9.58 w=4.5 l=0.15
C0 a_n73_n450# w_n211_n669# 0.295f
C1 a_n33_n547# a_15_n450# 0.0407f
C2 a_n73_n450# a_15_n450# 0.718f
C3 w_n211_n669# a_15_n450# 0.295f
C4 a_n73_n450# a_n33_n547# 0.0407f
C5 w_n211_n669# a_n33_n547# 0.242f
C6 a_15_n450# VSUBS 0.191f
C7 a_n73_n450# VSUBS 0.191f
C8 a_n33_n547# VSUBS 0.122f
C9 w_n211_n669# VSUBS 2.46f
.ends

.subckt sky130_fd_pr__nfet_01v8_ZFMUVB a_n608_n42# a_550_n42# a_n710_n216# a_n550_n130#
X0 a_550_n42# a_n550_n130# a_n608_n42# a_n710_n216# sky130_fd_pr__nfet_01v8 ad=0.122 pd=1.42 as=0.122 ps=1.42 w=0.42 l=5.5
C0 a_550_n42# a_n550_n130# 0.0242f
C1 a_550_n42# a_n608_n42# 0.00526f
C2 a_n550_n130# a_n608_n42# 0.0242f
C3 a_550_n42# a_n710_n216# 0.0873f
C4 a_n608_n42# a_n710_n216# 0.0873f
C5 a_n550_n130# a_n710_n216# 3.19f
.ends

.subckt sky130_fd_pr__pfet_01v8_UJPVTG w_n211_n769# a_n73_n550# a_n33_n647# a_15_n550#
+ VSUBS
X0 a_15_n550# a_n33_n647# a_n73_n550# w_n211_n769# sky130_fd_pr__pfet_01v8 ad=1.6 pd=11.6 as=1.6 ps=11.6 w=5.5 l=0.15
C0 a_n73_n550# w_n211_n769# 0.356f
C1 a_n33_n647# a_15_n550# 0.0449f
C2 a_n73_n550# a_15_n550# 0.877f
C3 w_n211_n769# a_15_n550# 0.356f
C4 a_n73_n550# a_n33_n647# 0.0449f
C5 w_n211_n769# a_n33_n647# 0.242f
C6 a_15_n550# VSUBS 0.232f
C7 a_n73_n550# VSUBS 0.232f
C8 a_n33_n647# VSUBS 0.122f
C9 w_n211_n769# VSUBS 2.81f
.ends

.subckt sky130_fd_pr__pfet_01v8_VZ9GTR a_n608_n42# a_550_n42# w_n746_n261# a_n550_n139#
+ VSUBS
X0 a_550_n42# a_n550_n139# a_n608_n42# w_n746_n261# sky130_fd_pr__pfet_01v8 ad=0.122 pd=1.42 as=0.122 ps=1.42 w=0.42 l=5.5
C0 a_n608_n42# w_n746_n261# 0.0498f
C1 a_n550_n139# a_550_n42# 0.0242f
C2 a_n608_n42# a_550_n42# 0.00526f
C3 w_n746_n261# a_550_n42# 0.0498f
C4 a_n608_n42# a_n550_n139# 0.0242f
C5 w_n746_n261# a_n550_n139# 1.82f
C6 a_550_n42# VSUBS 0.037f
C7 a_n608_n42# VSUBS 0.037f
C8 a_n550_n139# VSUBS 1.44f
C9 w_n746_n261# VSUBS 3.22f
.ends

.subckt sky130_fd_pr__nfet_01v8_9GNSAM a_n73_n550# a_n175_n724# a_15_n550# a_n33_n638#
X0 a_15_n550# a_n33_n638# a_n73_n550# a_n175_n724# sky130_fd_pr__nfet_01v8 ad=1.6 pd=11.6 as=1.6 ps=11.6 w=5.5 l=0.15
C0 a_15_n550# a_n33_n638# 0.0468f
C1 a_15_n550# a_n73_n550# 0.877f
C2 a_n33_n638# a_n73_n550# 0.0468f
C3 a_15_n550# a_n175_n724# 0.588f
C4 a_n73_n550# a_n175_n724# 0.588f
C5 a_n33_n638# a_n175_n724# 0.352f
.ends

.subckt th14 Vin m1_1594_n962# Vout Vp m1_710_n388# m1_2498_n384# Vn
XXM0 m1_1594_n962# Vp Vn Vn Vn sky130_fd_pr__pfet_01v8_XJ7SDL
XXM1 m1_710_n388# m1_1594_n962# Vn Vin sky130_fd_pr__nfet_01v8_ZFMUVB
XXM2 Vp m1_710_n388# Vin Vp Vn sky130_fd_pr__pfet_01v8_UJPVTG
XXM3 Vp m1_2498_n384# Vp m1_710_n388# Vn sky130_fd_pr__pfet_01v8_VZ9GTR
XXM4 m1_2498_n384# Vout Vp m1_710_n388# Vn sky130_fd_pr__pfet_01v8_VZ9GTR
XXM5 Vn Vn Vout m1_710_n388# sky130_fd_pr__nfet_01v8_9GNSAM
C0 m1_710_n388# Vn 0.459f
C1 Vn m1_2498_n384# 3.34e-24
C2 Vp m1_710_n388# 0.755f
C3 Vp m1_2498_n384# 0.276f
C4 m1_710_n388# Vout 0.191f
C5 Vout m1_2498_n384# 0.0142f
C6 Vp Vn 0.876f
C7 Vn Vout 0.0354f
C8 Vp Vout 0.125f
C9 m1_710_n388# m1_1594_n962# 0.00647f
C10 m1_710_n388# Vin 0.365f
C11 m1_2498_n384# Vin 1.46e-19
C12 Vn m1_1594_n962# 0.111f
C13 Vn Vin 0.0583f
C14 Vp m1_1594_n962# 0.237f
C15 Vp Vin 0.214f
C16 Vin m1_1594_n962# 0.166f
C17 m1_710_n388# m1_2498_n384# 0.768f
C18 Vin 0 3.4f
C19 Vout 0 0.854f
C20 Vn 0 0.831f
C21 m1_710_n388# 0 3.52f
C22 m1_2498_n384# 0 0.297f
C23 Vp 0 11.9f
C24 m1_1594_n962# 0 0.292f
.ends

.subckt sky130_fd_pr__nfet_01v8_8X7S4D a_15_n130# a_n33_n218# a_n73_n130# a_n175_n304#
X0 a_15_n130# a_n33_n218# a_n73_n130# a_n175_n304# sky130_fd_pr__nfet_01v8 ad=0.377 pd=3.18 as=0.377 ps=3.18 w=1.3 l=0.15
C0 a_n73_n130# a_n33_n218# 0.0274f
C1 a_n73_n130# a_15_n130# 0.21f
C2 a_15_n130# a_n33_n218# 0.0274f
C3 a_15_n130# a_n175_n304# 0.162f
C4 a_n73_n130# a_n175_n304# 0.162f
C5 a_n33_n218# a_n175_n304# 0.345f
.ends

.subckt sky130_fd_pr__pfet_01v8_GZD9X3 a_n139_n139# a_139_n42# w_n335_n261# a_n197_n42#
+ VSUBS
X0 a_139_n42# a_n139_n139# a_n197_n42# w_n335_n261# sky130_fd_pr__pfet_01v8 ad=0.122 pd=1.42 as=0.122 ps=1.42 w=0.42 l=1.39