* NGSPICE file created from adc1.ext - technology: sky130A

.subckt sky130_fd_sc_hd__a311o_1 A1 A2 A3 B1 C1 VGND VNB VPB VPWR X a_208_47# a_75_199#
+ a_544_297# a_315_47# a_201_297#
X0 a_75_199# C1 VGND VNB sky130_fd_pr__nfet_01v8 ad=0.169 pd=1.82 as=0.135 ps=1.07 w=0.65 l=0.15
X1 a_208_47# A3 VGND VNB sky130_fd_pr__nfet_01v8 ad=0.125 pd=1.03 as=0.112 ps=0.995 w=0.65 l=0.15
X2 a_315_47# A2 a_208_47# VNB sky130_fd_pr__nfet_01v8 ad=0.169 pd=1.17 as=0.125 ps=1.03 w=0.65 l=0.15
X3 VGND B1 a_75_199# VNB sky130_fd_pr__nfet_01v8 ad=0.135 pd=1.07 as=0.106 ps=0.975 w=0.65 l=0.15
X4 a_75_199# A1 a_315_47# VNB sky130_fd_pr__nfet_01v8 ad=0.106 pd=0.975 as=0.169 ps=1.17 w=0.65 l=0.15
X5 a_75_199# C1 a_544_297# VPB sky130_fd_pr__pfet_01v8_hvt ad=0.26 pd=2.52 as=0.207 ps=1.41 w=1 l=0.15
X6 a_544_297# B1 a_201_297# VPB sky130_fd_pr__pfet_01v8_hvt ad=0.207 pd=1.41 as=0.162 ps=1.33 w=1 l=0.15
X7 VPWR a_75_199# X VPB sky130_fd_pr__pfet_01v8_hvt ad=0.142 pd=1.28 as=0.285 ps=2.57 w=1 l=0.15
X8 a_201_297# A3 VPWR VPB sky130_fd_pr__pfet_01v8_hvt ad=0.165 pd=1.33 as=0.142 ps=1.28 w=1 l=0.15
X9 VPWR A2 a_201_297# VPB sky130_fd_pr__pfet_01v8_hvt ad=0.305 pd=1.61 as=0.165 ps=1.33 w=1 l=0.15
X10 a_201_297# A1 VPWR VPB sky130_fd_pr__pfet_01v8_hvt ad=0.162 pd=1.33 as=0.305 ps=1.61 w=1 l=0.15
X11 VGND a_75_199# X VNB sky130_fd_pr__nfet_01v8 ad=0.112 pd=0.995 as=0.169 ps=1.82 w=0.65 l=0.15
C0 a_315_47# VGND 0.00427f
C1 C1 VPWR 0.0146f
C2 a_208_47# A3 3.65e-19
C3 a_544_297# VGND 0.00256f
C4 VPB X 0.0107f
C5 VPWR A3 0.0181f
C6 a_201_297# VGND 0.00403f
C7 VPB A2 0.0376f
C8 a_75_199# A1 0.0696f
C9 B1 A1 0.0716f
C10 a_544_297# X 2.35e-19
C11 a_315_47# A2 0.00335f
C12 a_208_47# a_75_199# 0.0159f
C13 a_201_297# X 0.0131f
C14 C1 VGND 0.0181f
C15 a_75_199# VPWR 0.109f
C16 a_201_297# A2 0.0112f
C17 VGND A3 0.0161f
C18 B1 VPWR 0.0125f
C19 C1 X 5.14e-20
C20 X A3 0.00317f
C21 a_201_297# VPB 0.00186f
C22 A3 A2 0.0747f
C23 a_75_199# VGND 0.362f
C24 B1 VGND 0.0171f
C25 a_201_297# a_544_297# 0.00702f
C26 VPB C1 0.0394f
C27 a_75_199# X 0.0959f
C28 B1 X 7.79e-20
C29 VPB A3 0.0268f
C30 a_75_199# A2 0.0621f
C31 a_201_297# C1 0.00243f
C32 a_201_297# A3 0.00642f
C33 VPB a_75_199# 0.0486f
C34 VPB B1 0.0292f
C35 a_315_47# a_75_199# 0.0202f
C36 a_544_297# a_75_199# 0.0176f
C37 a_544_297# B1 1.13e-19
C38 a_201_297# a_75_199# 0.16f
C39 a_201_297# B1 0.00594f
C40 a_75_199# C1 0.0628f
C41 B1 C1 0.066f
C42 a_75_199# A3 0.163f
C43 VPWR A1 0.0151f
C44 a_208_47# VPWR 8.35e-19
C45 a_75_199# B1 0.102f
C46 VGND A1 0.0113f
C47 a_208_47# VGND 0.00302f
C48 X A1 1.2e-19
C49 VPWR VGND 0.0735f
C50 A2 A1 0.0689f
C51 a_208_47# X 1.91e-19
C52 a_208_47# A2 0.00102f
C53 X VPWR 0.0676f
C54 VPWR A2 0.0174f
C55 VPB A1 0.0306f
C56 a_315_47# A1 0.00313f
C57 X VGND 0.0609f
C58 VPB VPWR 0.0749f
C59 a_201_297# A1 0.011f
C60 VGND A2 0.0119f
C61 a_315_47# VPWR 0.00154f
C62 a_544_297# VPWR 0.0105f
C63 X A2 3.01e-19
C64 C1 A1 3.21e-19
C65 a_201_297# VPWR 0.211f
C66 VPB VGND 0.00772f
C67 VGND VNB 0.437f
C68 VPWR VNB 0.365f
C69 X VNB 0.0906f
C70 C1 VNB 0.148f
C71 B1 VNB 0.0947f
C72 A1 VNB 0.101f
C73 A2 VNB 0.11f
C74 A3 VNB 0.0908f
C75 VPB VNB 0.782f
C76 a_201_297# VNB 0.00345f
C77 a_75_199# VNB 0.205f
.ends

.subckt sky130_fd_sc_hd__and3_1 A B C VGND VNB VPB VPWR X a_181_47# a_109_47# a_27_47#
X0 VPWR A a_27_47# VPB sky130_fd_pr__pfet_01v8_hvt ad=0.0567 pd=0.69 as=0.109 ps=1.36 w=0.42 l=0.15
X1 VPWR C a_27_47# VPB sky130_fd_pr__pfet_01v8_hvt ad=0.142 pd=1.34 as=0.0662 ps=0.735 w=0.42 l=0.15
X2 a_181_47# B a_109_47# VNB sky130_fd_pr__nfet_01v8 ad=0.0441 pd=0.63 as=0.0441 ps=0.63 w=0.42 l=0.15
X3 VGND C a_181_47# VNB sky130_fd_pr__nfet_01v8 ad=0.132 pd=1.14 as=0.0441 ps=0.63 w=0.42 l=0.15
X4 a_27_47# B VPWR VPB sky130_fd_pr__pfet_01v8_hvt ad=0.0662 pd=0.735 as=0.0567 ps=0.69 w=0.42 l=0.15
X5 X a_27_47# VPWR VPB sky130_fd_pr__pfet_01v8_hvt ad=0.26 pd=2.52 as=0.142 ps=1.34 w=1 l=0.15
X6 X a_27_47# VGND VNB sky130_fd_pr__nfet_01v8 ad=0.169 pd=1.82 as=0.132 ps=1.14 w=0.65 l=0.15
X7 a_109_47# A a_27_47# VNB sky130_fd_pr__nfet_01v8 ad=0.0441 pd=0.63 as=0.109 ps=1.36 w=0.42 l=0.15
C0 A VPWR 0.0185f
C1 B C 0.0746f
C2 VGND VPWR 0.0475f
C3 A VPB 0.0426f
C4 VGND X 0.0708f
C5 A a_27_47# 0.157f
C6 VGND VPB 0.00604f
C7 VGND a_27_47# 0.134f
C8 VPWR C 0.00464f
C9 X C 0.0149f
C10 VPB C 0.0347f
C11 C a_27_47# 0.186f
C12 a_181_47# VPWR 3.97e-19
C13 VGND A 0.0154f
C14 a_181_47# a_27_47# 0.00401f
C15 VGND C 0.0703f
C16 VGND a_181_47# 0.00261f
C17 a_181_47# C 0.00151f
C18 VPWR a_109_47# 3.29e-19
C19 B VPWR 0.128f
C20 a_27_47# a_109_47# 0.00517f
C21 X B 0.00111f
C22 VPB B 0.0836f
C23 B a_27_47# 0.0625f
C24 A a_109_47# 6.45e-19
C25 X VPWR 0.0766f
C26 VPB VPWR 0.0795f
C27 VGND a_109_47# 0.00123f
C28 VPWR a_27_47# 0.145f
C29 X VPB 0.0121f
C30 A B 0.0869f
C31 X a_27_47# 0.087f
C32 VPB a_27_47# 0.0501f
C33 VGND B 0.00714f
C34 VGND VNB 0.3f
C35 X VNB 0.0923f
C36 C VNB 0.12f
C37 A VNB 0.174f
C38 VPWR VNB 0.274f
C39 B VNB 0.102f
C40 VPB VNB 0.516f
C41 a_27_47# VNB 0.177f
.ends

.subckt sky130_fd_sc_hd__decap_3 VGND VNB VPB VPWR
X0 VPWR VGND VPWR VPB sky130_fd_pr__pfet_01v8_hvt ad=0.226 pd=2.26 as=0.452 ps=4.52 w=0.87 l=0.59
X1 VGND VPWR VGND VNB sky130_fd_pr__nfet_01v8 ad=0.143 pd=1.62 as=0.286 ps=3.24 w=0.55 l=0.59
C0 VPWR VPB 0.0625f
C1 VPWR VGND 0.353f
C2 VPB VGND 0.0797f
C3 VPWR VNB 0.47f
C4 VGND VNB 0.427f
C5 VPB VNB 0.339f
.ends

.subckt sky130_fd_sc_hd__decap_4 VGND VNB VPB VPWR
X0 VPWR VGND VPWR VPB sky130_fd_pr__pfet_01v8_hvt ad=0.226 pd=2.26 as=0.452 ps=4.52 w=0.87 l=1.05
X1 VGND VPWR VGND VNB sky130_fd_pr__nfet_01v8 ad=0.143 pd=1.62 as=0.286 ps=3.24 w=0.55 l=1.05
C0 VPWR VPB 0.0787f
C1 VPWR VGND 0.546f
C2 VPB VGND 0.116f
C3 VPWR VNB 0.619f
C4 VGND VNB 0.554f
C5 VPB VNB 0.428f
.ends

.subckt sky130_fd_sc_hd__a21o_1 A1 A2 B1 VGND VNB VPB VPWR X a_384_47# a_81_21# a_299_297#
X0 a_81_21# B1 VGND VNB sky130_fd_pr__nfet_01v8 ad=0.0894 pd=0.925 as=0.257 ps=1.44 w=0.65 l=0.15
X1 a_299_297# B1 a_81_21# VPB sky130_fd_pr__pfet_01v8_hvt ad=0.138 pd=1.27 as=0.26 ps=2.52 w=1 l=0.15
X2 VPWR a_81_21# X VPB sky130_fd_pr__pfet_01v8_hvt ad=0.26 pd=2.52 as=0.26 ps=2.52 w=1 l=0.15
X3 VPWR A1 a_299_297# VPB sky130_fd_pr__pfet_01v8_hvt ad=0.14 pd=1.28 as=0.138 ps=1.27 w=1 l=0.15
X4 VGND a_81_21# X VNB sky130_fd_pr__nfet_01v8 ad=0.257 pd=1.44 as=0.169 ps=1.82 w=0.65 l=0.15
X5 VGND A2 a_384_47# VNB sky130_fd_pr__nfet_01v8 ad=0.172 pd=1.83 as=0.091 ps=0.93 w=0.65 l=0.15
X6 a_299_297# A2 VPWR VPB sky130_fd_pr__pfet_01v8_hvt ad=0.265 pd=2.53 as=0.14 ps=1.28 w=1 l=0.15
X7 a_384_47# A1 a_81_21# VNB sky130_fd_pr__nfet_01v8 ad=0.091 pd=0.93 as=0.0894 ps=0.925 w=0.65 l=0.15
C0 a_299_297# a_81_21# 0.0821f
C1 A1 a_384_47# 0.00884f
C2 B1 a_81_21# 0.148f
C3 VPWR a_384_47# 4.08e-19
C4 VPB a_81_21# 0.0593f
C5 a_299_297# A2 0.0468f
C6 X VGND 0.0512f
C7 VPB A2 0.0373f
C8 a_81_21# a_384_47# 0.00138f
C9 X VPWR 0.0847f
C10 B1 a_299_297# 0.00863f
C11 X a_81_21# 0.112f
C12 VPB a_299_297# 0.0111f
C13 VPB B1 0.0387f
C14 a_299_297# a_384_47# 1.48e-19
C15 B1 X 3.04e-20
C16 VPB X 0.0108f
C17 A1 VGND 0.0786f
C18 VPWR VGND 0.0579f
C19 A1 VPWR 0.0209f
C20 a_81_21# VGND 0.173f
C21 A1 a_81_21# 0.0568f
C22 A2 VGND 0.0495f
C23 VPWR a_81_21# 0.146f
C24 A1 A2 0.0921f
C25 A2 VPWR 0.0201f
C26 a_299_297# VGND 0.00772f
C27 B1 VGND 0.0181f
C28 A2 a_81_21# 7.47e-19
C29 A1 a_299_297# 0.0585f
C30 VPB VGND 0.00713f
C31 B1 A1 0.0817f
C32 a_299_297# VPWR 0.202f
C33 B1 VPWR 0.0196f
C34 VPB A1 0.0264f
C35 VPB VPWR 0.068f
C36 a_384_47# VGND 0.00366f
C37 VGND VNB 0.364f
C38 VPWR VNB 0.286f
C39 X VNB 0.0945f
C40 A2 VNB 0.144f
C41 A1 VNB 0.0996f
C42 B1 VNB 0.109f
C43 VPB VNB 0.605f
C44 a_299_297# VNB 0.0348f
C45 a_81_21# VNB 0.147f
.ends

.subckt sky130_fd_pr__nfet_01v8_D7Y3TR a_n63_n101# a_n33_n75# a_n249_n145# a_63_n75#
+ a_n125_n75#
X0 a_63_n75# a_n63_n101# a_n33_n75# a_n249_n145# sky130_fd_pr__nfet_01v8 ad=0.233 pd=2.12 as=0.124 ps=1.08 w=0.75 l=0.15
X1 a_n33_n75# a_n63_n101# a_n125_n75# a_n249_n145# sky130_fd_pr__nfet_01v8 ad=0.124 pd=1.08 as=0.233 ps=2.12 w=0.75 l=0.15
C0 a_n63_n101# a_n33_n75# 0.0186f
C1 a_n33_n75# a_63_n75# 0.113f
C2 a_n33_n75# a_n125_n75# 0.113f
C3 a_n63_n101# a_63_n75# 0.0104f
C4 a_n63_n101# a_n125_n75# 0.00451f
C5 a_63_n75# a_n249_n145# 0.0963f
C6 a_n33_n75# a_n249_n145# 0.0361f
C7 a_n125_n75# a_n249_n145# 0.105f
C8 a_n63_n101# a_n249_n145# 0.294f
.ends

.subckt sky130_fd_pr__pfet_01v8_2ZD99F w_n349_n261# a_n153_n139# a_n211_n42# a_153_n42#
+ VSUBS
X0 a_153_n42# a_n153_n139# a_n211_n42# w_n349_n261# sky130_fd_pr__pfet_01v8 ad=0.122 pd=1.42 as=0.122 ps=1.42 w=0.42 l=1.53
C0 w_n349_n261# a_n211_n42# 0.034f
C1 a_n211_n42# a_153_n42# 0.0169f
C2 a_n211_n42# a_n153_n139# 0.0177f
C3 w_n349_n261# a_153_n42# 0.0179f
C4 w_n349_n261# a_n153_n139# 0.388f
C5 a_n153_n139# a_153_n42# 0.0177f
C6 a_153_n42# VSUBS 0.0558f
C7 a_n211_n42# VSUBS 0.0456f
C8 a_n153_n139# VSUBS 0.556f
C9 w_n349_n261# VSUBS 1.16f
.ends

.subckt sky130_fd_pr__nfet_01v8_2BW22M a_154_n42# a_n154_n130# a_n314_n182# a_n212_n42#
X0 a_154_n42# a_n154_n130# a_n212_n42# a_n314_n182# sky130_fd_pr__nfet_01v8 ad=0.122 pd=1.42 as=0.122 ps=1.42 w=0.42 l=1.54
C0 a_n154_n130# a_154_n42# 0.0178f
C1 a_154_n42# a_n212_n42# 0.0169f
C2 a_n154_n130# a_n212_n42# 0.0178f
C3 a_154_n42# a_n314_n182# 0.0737f
C4 a_n212_n42# a_n314_n182# 0.0816f
C5 a_n154_n130# a_n314_n182# 0.924f
.ends

.subckt sky130_fd_pr__pfet_01v8_XJP3BL a_15_n150# w_n211_n369# a_n73_n150# a_n33_n247#
+ VSUBS
X0 a_15_n150# a_n33_n247# a_n73_n150# w_n211_n369# sky130_fd_pr__pfet_01v8 ad=0.435 pd=3.58 as=0.435 ps=3.58 w=1.5 l=0.15
C0 w_n211_n369# a_n73_n150# 0.0292f
C1 a_n73_n150# a_15_n150# 0.242f
C2 a_n73_n150# a_n33_n247# 0.0267f
C3 w_n211_n369# a_15_n150# 0.0292f
C4 w_n211_n369# a_n33_n247# 0.19f
C5 a_n33_n247# a_15_n150# 0.0267f
C6 a_15_n150# VSUBS 0.126f
C7 a_n73_n150# VSUBS 0.126f
C8 a_n33_n247# VSUBS 0.146f
C9 w_n211_n369# VSUBS 1.02f
.ends

.subckt sky130_fd_pr__nfet_01v8_LH5FDA a_n150_n130# a_276_n182# a_n208_n42# a_150_n42#
X0 a_150_n42# a_n150_n130# a_n208_n42# a_276_n182# sky130_fd_pr__nfet_01v8 ad=0.122 pd=1.42 as=0.122 ps=1.42 w=0.42 l=1.5
C0 a_n150_n130# a_150_n42# 0.0176f
C1 a_150_n42# a_n208_n42# 0.0172f
C2 a_n150_n130# a_n208_n42# 0.0176f
C3 a_150_n42# a_276_n182# 0.0815f
C4 a_n208_n42# a_276_n182# 0.0736f
C5 a_n150_n130# a_276_n182# 0.904f
.ends

.subckt th02 Vin V02 m1_983_133# Vp m1_571_144# Vn
XXM0 Vin Vn Vn m1_983_133# m1_983_133# sky130_fd_pr__nfet_01v8_D7Y3TR
XXM1 Vp Vin m1_571_144# m1_983_133# Vn sky130_fd_pr__pfet_01v8_2ZD99F
XXM2 m1_571_144# Vp Vn Vp sky130_fd_pr__nfet_01v8_2BW22M
XXM3 V02 Vp Vp m1_983_133# Vn sky130_fd_pr__pfet_01v8_XJP3BL
XXM4 m1_983_133# Vn V02 Vn sky130_fd_pr__nfet_01v8_LH5FDA
C0 m1_983_133# Vin 0.279f
C1 m1_983_133# m1_571_144# 0.0183f
C2 m1_983_133# V02 0.155f
C3 m1_983_133# Vn 0.216f
C4 Vin m1_571_144# 0.332f
C5 m1_983_133# Vp 0.366f
C6 Vin V02 0.00845f
C7 V02 m1_571_144# 0.011f
C8 Vin Vn 0.0263f
C9 Vn m1_571_144# 0.00115f
C10 V02 Vn 0.00239f
C11 Vin Vp 0.25f
C12 m1_571_144# Vp 0.176f
C13 V02 Vp 0.118f
C14 Vn Vp 0.0235f
C15 Vn 0 0.263f
C16 V02 0 0.334f
C17 m1_983_133# 0 1.44f
C18 Vp 0 3.16f
C19 m1_571_144# 0 0.252f
C20 Vin 0 0.949f
.ends

.subckt sky130_fd_sc_hd__inv_2 A VGND VNB VPB VPWR Y
X0 Y A VPWR VPB sky130_fd_pr__pfet_01v8_hvt ad=0.135 pd=1.27 as=0.26 ps=2.52 w=1 l=0.15
X1 VGND A Y VNB sky130_fd_pr__nfet_01v8 ad=0.169 pd=1.82 as=0.0878 ps=0.92 w=0.65 l=0.15
X2 Y A VGND VNB sky130_fd_pr__nfet_01v8 ad=0.0878 pd=0.92 as=0.169 ps=1.82 w=0.65 l=0.15
X3 VPWR A Y VPB sky130_fd_pr__pfet_01v8_hvt ad=0.26 pd=2.52 as=0.135 ps=1.27 w=1 l=0.15
C0 VPB VPWR 0.0521f
C1 VGND Y 0.155f
C2 VGND VPB 0.00649f
C3 Y A 0.0894f
C4 VPB A 0.0742f
C5 VGND VPWR 0.0423f
C6 Y VPB 0.0061f
C7 A VPWR 0.0631f
C8 VGND A 0.0638f
C9 Y VPWR 0.209f
C10 VGND VNB 0.266f
C11 Y VNB 0.0332f
C12 VPWR VNB 0.246f
C13 A VNB 0.263f
C14 VPB VNB 0.339f
.ends

.subckt sky130_fd_sc_hd__or3_1 A B C VGND VNB VPB VPWR X a_29_53# a_183_297# a_111_297#
X0 X a_29_53# VPWR VPB sky130_fd_pr__pfet_01v8_hvt ad=0.28 pd=2.56 as=0.148 ps=1.34 w=1 l=0.15
X1 a_111_297# C a_29_53# VPB sky130_fd_pr__pfet_01v8_hvt ad=0.0441 pd=0.63 as=0.109 ps=1.36 w=0.42 l=0.15
X2 X a_29_53# VGND VNB sky130_fd_pr__nfet_01v8 ad=0.182 pd=1.86 as=0.102 ps=0.99 w=0.65 l=0.15
X3 a_183_297# B a_111_297# VPB sky130_fd_pr__pfet_01v8_hvt ad=0.0693 pd=0.75 as=0.0441 ps=0.63 w=0.42 l=0.15
X4 VPWR A a_183_297# VPB sky130_fd_pr__pfet_01v8_hvt ad=0.148 pd=1.34 as=0.0693 ps=0.75 w=0.42 l=0.15
X5 a_29_53# B VGND VNB sky130_fd_pr__nfet_01v8 ad=0.0567 pd=0.69 as=0.0567 ps=0.69 w=0.42 l=0.15
X6 VGND C a_29_53# VNB sky130_fd_pr__nfet_01v8 ad=0.0567 pd=0.69 as=0.109 ps=1.36 w=0.42 l=0.15
X7 VGND A a_29_53# VNB sky130_fd_pr__nfet_01v8 ad=0.102 pd=0.99 as=0.0567 ps=0.69 w=0.42 l=0.15
C0 A VPB 0.0377f
C1 VPWR VPB 0.0649f
C2 B A 0.0787f
C3 A a_111_297# 0.00223f
C4 B VPWR 0.147f
C5 VPWR a_111_297# 5.94e-19
C6 VGND a_183_297# 5.75e-19
C7 A a_29_53# 0.242f
C8 VPWR a_29_53# 0.0833f
C9 VGND C 0.0161f
C10 VGND X 0.036f
C11 C VPB 0.0396f
C12 B C 0.0802f
C13 VGND VPB 0.00724f
C14 a_29_53# a_183_297# 0.00868f
C15 VPB X 0.0109f
C16 VGND B 0.0152f
C17 VPWR A 0.00936f
C18 B X 6.52e-19
C19 VGND a_111_297# 3.96e-19
C20 C a_29_53# 0.0857f
C21 B VPB 0.0962f
C22 VGND a_29_53# 0.217f
C23 a_29_53# X 0.0991f
C24 A a_183_297# 0.00239f
C25 VPB a_29_53# 0.0491f
C26 VPWR a_183_297# 8.13e-19
C27 B a_29_53# 0.121f
C28 a_111_297# a_29_53# 0.005f
C29 C A 0.0343f
C30 VPWR C 0.00457f
C31 VGND A 0.0187f
C32 A X 0.00127f
C33 VGND VPWR 0.0459f
C34 VPWR X 0.0885f
C35 VGND VNB 0.306f
C36 X VNB 0.0882f
C37 A VNB 0.117f
C38 C VNB 0.16f
C39 B VNB 0.117f
C40 VPWR VNB 0.253f
C41 VPB VNB 0.516f
C42 a_29_53# VNB 0.18f
.ends

.subckt sky130_fd_sc_hd__decap_6 VGND VNB VPB VPWR
X0 VPWR VGND VPWR VPB sky130_fd_pr__pfet_01v8_hvt ad=0.226 pd=2.26 as=0.452 ps=4.52 w=0.87 l=1.97
X1 VGND VPWR VGND VNB sky130_fd_pr__nfet_01v8 ad=0.143 pd=1.62 as=0.286 ps=3.24 w=0.55 l=1.97
C0 VGND VPB 0.161f
C1 VGND VPWR 0.903f
C2 VPWR VPB 0.0858f
C3 VPWR VNB 0.867f
C4 VGND VNB 0.761f
C5 VPB VNB 0.605f
.ends

.subckt sky130_fd_sc_hd__nor2_1 A B VGND VNB VPB VPWR Y a_109_297#
X0 VPWR A a_109_297# VPB sky130_fd_pr__pfet_01v8_hvt ad=0.26 pd=2.52 as=0.105 ps=1.21 w=1 l=0.15
X1 VGND A Y VNB sky130_fd_pr__nfet_01v8 ad=0.169 pd=1.82 as=0.0878 ps=0.92 w=0.65 l=0.15
X2 a_109_297# B Y VPB sky130_fd_pr__pfet_01v8_hvt ad=0.105 pd=1.21 as=0.26 ps=2.52 w=1 l=0.15
X3 Y B VGND VNB sky130_fd_pr__nfet_01v8 ad=0.0878 pd=0.92 as=0.169 ps=1.82 w=0.65 l=0.15
C0 Y B 0.0877f
C1 VPB VPWR 0.0449f
C2 VPWR A 0.0528f
C3 Y a_109_297# 0.0113f
C4 VGND Y 0.154f
C5 VGND B 0.0451f
C6 VPB A 0.0415f
C7 Y VPWR 0.0995f
C8 B VPWR 0.0148f
C9 VGND a_109_297# 0.00128f
C10 VPB Y 0.0139f
C11 Y A 0.0471f
C12 a_109_297# VPWR 0.00638f
C13 VGND VPWR 0.0314f
C14 VPB B 0.0367f
C15 B A 0.0584f
C16 VGND VPB 0.00456f
C17 VGND A 0.0486f
C18 VGND VNB 0.263f
C19 VPWR VNB 0.214f
C20 Y VNB 0.0605f
C21 A VNB 0.149f
C22 B VNB 0.143f
C23 VPB VNB 0.339f
.ends

.subckt sky130_fd_sc_hd__a221o_1 A1 A2 B1 B2 C1 VGND VNB VPB VPWR X a_193_297# a_465_47#
+ a_205_47# a_109_297# a_27_47#
X0 a_465_47# A1 a_27_47# VNB sky130_fd_pr__nfet_01v8 ad=0.107 pd=0.98 as=0.169 ps=1.82 w=0.65 l=0.15
X1 X a_27_47# VPWR VPB sky130_fd_pr__pfet_01v8_hvt ad=0.26 pd=2.52 as=0.157 ps=1.32 w=1 l=0.15
X2 a_109_297# B1 a_193_297# VPB sky130_fd_pr__pfet_01v8_hvt ad=0.26 pd=2.52 as=0.135 ps=1.27 w=1 l=0.15
X3 a_193_297# B2 a_109_297# VPB sky130_fd_pr__pfet_01v8_hvt ad=0.135 pd=1.27 as=0.135 ps=1.27 w=1 l=0.15
X4 X a_27_47# VGND VNB sky130_fd_pr__nfet_01v8 ad=0.169 pd=1.82 as=0.102 ps=0.965 w=0.65 l=0.15
X5 a_205_47# B2 VGND VNB sky130_fd_pr__nfet_01v8 ad=0.0683 pd=0.86 as=0.107 ps=0.98 w=0.65 l=0.15
X6 VPWR A2 a_193_297# VPB sky130_fd_pr__pfet_01v8_hvt ad=0.157 pd=1.32 as=0.165 ps=1.33 w=1 l=0.15
X7 a_193_297# A1 VPWR VPB sky130_fd_pr__pfet_01v8_hvt ad=0.165 pd=1.33 as=0.26 ps=2.52 w=1 l=0.15
X8 a_27_47# B1 a_205_47# VNB sky130_fd_pr__nfet_01v8 ad=0.169 pd=1.82 as=0.0683 ps=0.86 w=0.65 l=0.15
X9 a_109_297# C1 a_27_47# VPB sky130_fd_pr__pfet_01v8_hvt ad=0.135 pd=1.27 as=0.26 ps=2.52 w=1 l=0.15
X10 VGND C1 a_27_47# VNB sky130_fd_pr__nfet_01v8 ad=0.107 pd=0.98 as=0.169 ps=1.82 w=0.65 l=0.15
X11 VGND A2 a_465_47# VNB sky130_fd_pr__nfet_01v8 ad=0.102 pd=0.965 as=0.107 ps=0.98 w=0.65 l=0.15
C0 VPB a_109_297# 0.00421f
C1 a_27_47# VGND 0.395f
C2 a_109_297# A1 1.05e-19
C3 a_465_47# A1 7.06e-19
C4 a_193_297# VPB 0.00774f
C5 a_109_297# X 3.99e-19
C6 a_193_297# A1 0.0109f
C7 a_465_47# X 1.56e-19
C8 A2 a_27_47# 0.153f
C9 VPB B2 0.0256f
C10 B1 VGND 0.0133f
C11 a_27_47# C1 0.0792f
C12 a_193_297# X 0.00367f
C13 VPWR VGND 0.0722f
C14 X B2 6.77e-20
C15 A2 VPWR 0.0209f
C16 B1 C1 6.46e-19
C17 a_193_297# a_109_297# 0.0927f
C18 C1 VPWR 0.0139f
C19 a_109_297# B2 0.0133f
C20 VPB a_27_47# 0.0512f
C21 a_27_47# A1 0.0984f
C22 a_193_297# B2 0.00126f
C23 a_27_47# X 0.0921f
C24 VPB B1 0.0321f
C25 B1 A1 0.0609f
C26 VPB VPWR 0.0799f
C27 VPWR A1 0.0161f
C28 A2 VGND 0.0168f
C29 B1 X 9.58e-20
C30 a_27_47# a_109_297# 0.0961f
C31 a_465_47# a_27_47# 0.013f
C32 VPWR X 0.0897f
C33 C1 VGND 0.0196f
C34 a_193_297# a_27_47# 0.144f
C35 a_27_47# B2 0.0959f
C36 B1 a_109_297# 0.00736f
C37 A2 C1 9.03e-21
C38 a_109_297# VPWR 0.15f
C39 a_465_47# VPWR 5.05e-19
C40 a_193_297# B1 0.00869f
C41 a_193_297# VPWR 0.169f
C42 VPB VGND 0.00844f
C43 B1 B2 0.0784f
C44 a_27_47# a_205_47# 0.00762f
C45 A1 VGND 0.0126f
C46 VPWR B2 0.00842f
C47 X VGND 0.061f
C48 A2 VPB 0.027f
C49 A2 A1 0.0692f
C50 VPB C1 0.0367f
C51 C1 A1 1.77e-20
C52 a_205_47# VPWR 1.62e-19
C53 A2 X 0.00157f
C54 a_109_297# VGND 0.00284f
C55 C1 X 5.03e-20
C56 a_465_47# VGND 0.00257f
C57 a_27_47# B1 0.112f
C58 a_27_47# VPWR 0.099f
C59 a_193_297# VGND 0.00438f
C60 VGND B2 0.0174f
C61 C1 a_109_297# 0.00739f
C62 VPB A1 0.0343f
C63 A2 a_193_297# 0.00683f
C64 B1 VPWR 0.00982f
C65 VPB X 0.0113f
C66 X A1 2.77e-19
C67 a_205_47# VGND 0.00156f
C68 C1 B2 0.0726f
C69 VGND VNB 0.437f
C70 X VNB 0.0919f
C71 VPWR VNB 0.364f
C72 A2 VNB 0.0896f
C73 A1 VNB 0.106f
C74 B1 VNB 0.108f
C75 B2 VNB 0.0887f
C76 C1 VNB 0.139f
C77 VPB VNB 0.782f
C78 a_193_297# VNB 0.0011f
C79 a_109_297# VNB 7.11e-19
C80 a_27_47# VNB 0.216f
.ends

.subckt sky130_fd_sc_hd__a32o_1 A1 A2 A3 B1 B2 VGND VNB VPB VPWR X a_256_47# a_584_47#
+ a_93_21# a_250_297# a_346_47#
X0 a_93_21# A1 a_346_47# VNB sky130_fd_pr__nfet_01v8 ad=0.143 pd=1.09 as=0.146 ps=1.1 w=0.65 l=0.15
X1 a_93_21# B1 a_250_297# VPB sky130_fd_pr__pfet_01v8_hvt ad=0.14 pd=1.28 as=0.185 ps=1.37 w=1 l=0.15
X2 a_584_47# B1 a_93_21# VNB sky130_fd_pr__nfet_01v8 ad=0.0683 pd=0.86 as=0.143 ps=1.09 w=0.65 l=0.15
X3 VPWR a_93_21# X VPB sky130_fd_pr__pfet_01v8_hvt ad=0.243 pd=1.49 as=0.33 ps=2.66 w=1 l=0.15
X4 VGND B2 a_584_47# VNB sky130_fd_pr__nfet_01v8 ad=0.172 pd=1.83 as=0.0683 ps=0.86 w=0.65 l=0.15
X5 a_256_47# A3 VGND VNB sky130_fd_pr__nfet_01v8 ad=0.0975 pd=0.95 as=0.167 ps=1.16 w=0.65 l=0.15
X6 a_250_297# B2 a_93_21# VPB sky130_fd_pr__pfet_01v8_hvt ad=0.265 pd=2.53 as=0.14 ps=1.28 w=1 l=0.15
X7 VGND a_93_21# X VNB sky130_fd_pr__nfet_01v8 ad=0.167 pd=1.16 as=0.214 ps=1.96 w=0.65 l=0.15
X8 a_250_297# A3 VPWR VPB sky130_fd_pr__pfet_01v8_hvt ad=0.165 pd=1.33 as=0.243 ps=1.49 w=1 l=0.15
X9 VPWR A2 a_250_297# VPB sky130_fd_pr__pfet_01v8_hvt ad=0.225 pd=1.45 as=0.165 ps=1.33 w=1 l=0.15
X10 a_250_297# A1 VPWR VPB sky130_fd_pr__pfet_01v8_hvt ad=0.185 pd=1.37 as=0.225 ps=1.45 w=1 l=0.15
X11 a_346_47# A2 a_256_47# VNB sky130_fd_pr__nfet_01v8 ad=0.146 pd=1.1 as=0.0975 ps=0.95 w=0.65 l=0.15
C0 a_250_297# A3 0.00602f
C1 A2 B1 1.44e-20
C2 A2 a_256_47# 0.00256f
C3 VGND B1 0.0344f
C4 B1 a_93_21# 0.0774f
C5 B1 VPWR 0.01f
C6 a_250_297# VPB 0.00616f
C7 VGND a_256_47# 0.00394f
C8 a_256_47# a_93_21# 0.0114f
C9 VPWR a_256_47# 9.47e-19
C10 a_250_297# A1 0.0129f
C11 a_250_297# X 5.42e-19
C12 a_250_297# B2 0.0344f
C13 A3 VPB 0.0291f
C14 A2 VGND 0.0114f
C15 A2 a_93_21# 0.0747f
C16 A3 X 2.45e-19
C17 A2 VPWR 0.0133f
C18 B2 A3 9.12e-20
C19 VGND a_93_21# 0.251f
C20 VGND VPWR 0.076f
C21 B1 a_250_297# 0.0125f
C22 VPWR a_93_21# 0.0907f
C23 B1 a_584_47# 0.00143f
C24 VPB A1 0.0296f
C25 X VPB 0.0108f
C26 B2 VPB 0.0355f
C27 B1 A3 7.88e-22
C28 X A1 6.03e-20
C29 a_346_47# A1 0.00465f
C30 A3 a_256_47# 4.42e-19
C31 B2 A1 3.14e-19
C32 A2 a_250_297# 0.0129f
C33 B1 VPB 0.0276f
C34 VGND a_250_297# 0.0072f
C35 a_250_297# a_93_21# 0.188f
C36 a_250_297# VPWR 0.313f
C37 VGND a_584_47# 0.00683f
C38 a_584_47# a_93_21# 0.00278f
C39 a_584_47# VPWR 9.47e-19
C40 A2 A3 0.0788f
C41 B1 A1 0.0965f
C42 B1 X 3.83e-20
C43 a_346_47# B1 5.39e-20
C44 B1 B2 0.0823f
C45 VGND A3 0.00974f
C46 A3 a_93_21# 0.124f
C47 A3 VPWR 0.0158f
C48 A2 VPB 0.0287f
C49 A2 A1 0.0971f
C50 VGND VPB 0.00788f
C51 A2 X 1.19e-19
C52 VPB a_93_21# 0.0485f
C53 a_346_47# A2 0.00252f
C54 VPWR VPB 0.0756f
C55 B1 a_256_47# 2.07e-20
C56 A2 B2 1.46e-19
C57 a_250_297# a_584_47# 2.43e-19
C58 VGND A1 0.0133f
C59 VGND X 0.06f
C60 A1 a_93_21# 0.0641f
C61 a_346_47# VGND 0.00514f
C62 X a_93_21# 0.0841f
C63 VPWR A1 0.016f
C64 X VPWR 0.0849f
C65 a_346_47# a_93_21# 0.0119f
C66 a_346_47# VPWR 0.00109f
C67 VGND B2 0.0469f
C68 B2 a_93_21# 0.0147f
C69 B2 VPWR 0.0108f
C70 VGND VNB 0.465f
C71 VPWR VNB 0.365f
C72 X VNB 0.0937f
C73 B2 VNB 0.14f
C74 B1 VNB 0.101f
C75 A1 VNB 0.0951f
C76 A2 VNB 0.0921f
C77 A3 VNB 0.0929f
C78 VPB VNB 0.782f
C79 a_250_297# VNB 0.0278f
C80 a_93_21# VNB 0.151f
.ends

.subckt sky130_fd_sc_hd__or4_1 A B C D VGND VNB VPB VPWR X a_277_297# a_205_297# a_27_297#
+ a_109_297#
X0 a_27_297# B VGND VNB sky130_fd_pr__nfet_01v8 ad=0.0567 pd=0.69 as=0.0567 ps=0.69 w=0.42 l=0.15
X1 a_27_297# D VGND VNB sky130_fd_pr__nfet_01v8 ad=0.0693 pd=0.75 as=0.109 ps=1.36 w=0.42 l=0.15
X2 a_277_297# B a_205_297# VPB sky130_fd_pr__pfet_01v8_hvt ad=0.0693 pd=0.75 as=0.0441 ps=0.63 w=0.42 l=0.15
X3 VPWR A a_277_297# VPB sky130_fd_pr__pfet_01v8_hvt ad=0.148 pd=1.34 as=0.0693 ps=0.75 w=0.42 l=0.15
X4 X a_27_297# VGND VNB sky130_fd_pr__nfet_01v8 ad=0.176 pd=1.84 as=0.102 ps=0.99 w=0.65 l=0.15
X5 a_205_297# C a_109_297# VPB sky130_fd_pr__pfet_01v8_hvt ad=0.0441 pd=0.63 as=0.0693 ps=0.75 w=0.42 l=0.15
X6 X a_27_297# VPWR VPB sky130_fd_pr__pfet_01v8_hvt ad=0.27 pd=2.54 as=0.148 ps=1.34 w=1 l=0.15
X7 VGND C a_27_297# VNB sky130_fd_pr__nfet_01v8 ad=0.0567 pd=0.69 as=0.0693 ps=0.75 w=0.42 l=0.15
X8 a_109_297# D a_27_297# VPB sky130_fd_pr__pfet_01v8_hvt ad=0.0693 pd=0.75 as=0.109 ps=1.36 w=0.42 l=0.15
X9 VGND A a_27_297# VNB sky130_fd_pr__nfet_01v8 ad=0.102 pd=0.99 as=0.0567 ps=0.69 w=0.42 l=0.15
C0 VGND A 0.016f
C1 a_27_297# a_205_297# 0.00412f
C2 a_277_297# B 2.29e-19
C3 VGND a_109_297# 7.58e-19
C4 VPWR a_205_297# 5.16e-19
C5 a_27_297# C 0.158f
C6 VGND a_277_297# 4.65e-19
C7 D A 2.13e-19
C8 VPWR C 0.00723f
C9 C VPB 0.0338f
C10 X A 0.00133f
C11 B C 0.0917f
C12 a_27_297# VPWR 0.084f
C13 a_205_297# VGND 3.36e-19
C14 a_27_297# VPB 0.0517f
C15 a_277_297# X 6.43e-20
C16 VGND C 0.0191f
C17 VPWR VPB 0.075f
C18 a_27_297# B 0.159f
C19 VPWR B 0.193f
C20 a_27_297# VGND 0.235f
C21 D C 0.0954f
C22 a_277_297# A 2.28e-19
C23 B VPB 0.106f
C24 VPWR VGND 0.0546f
C25 VGND VPB 0.00796f
C26 a_27_297# D 0.054f
C27 VGND B 0.0159f
C28 VPWR D 0.00503f
C29 D VPB 0.0405f
C30 a_27_297# X 0.0991f
C31 C A 0.028f
C32 VPWR X 0.0878f
C33 B D 0.00287f
C34 C a_109_297# 0.00356f
C35 X VPB 0.0109f
C36 a_277_297# C 5.54e-19
C37 a_27_297# A 0.163f
C38 VGND D 0.0517f
C39 B X 6.42e-19
C40 a_27_297# a_109_297# 0.00695f
C41 VPWR A 0.00769f
C42 VPB A 0.033f
C43 a_27_297# a_277_297# 0.00876f
C44 VGND X 0.0354f
C45 VPWR a_109_297# 9.23e-19
C46 a_205_297# C 0.00261f
C47 VPWR a_277_297# 7.48e-19
C48 B A 0.0639f
C49 VGND VNB 0.367f
C50 X VNB 0.0883f
C51 A VNB 0.109f
C52 C VNB 0.105f
C53 D VNB 0.175f
C54 B VNB 0.115f
C55 VPWR VNB 0.29f
C56 VPB VNB 0.605f
C57 a_27_297# VNB 0.163f
.ends

.subckt sky130_ef_sc_hd__decap_12 VGND VPWR VPB VNB
X0 VPWR VGND VPWR VPB sky130_fd_pr__pfet_01v8_hvt ad=0.226 pd=2.26 as=0.452 ps=4.52 w=0.87 l=4.73
X1 VGND VPWR VGND VNB sky130_fd_pr__nfet_01v8 ad=0.143 pd=1.62 as=0.286 ps=3.24 w=0.55 l=4.73
C0 VPWR VGND 1.57f
C1 VPWR VPB 0.137f
C2 VPB VGND 0.35f
C3 VPWR VNB 1.67f
C4 VGND VNB 1.47f
C5 VPB VNB 1.14f
.ends

.subckt sky130_fd_sc_hd__and4b_1 A_N B C D VGND VNB VPB VPWR X a_369_47# a_469_47#
+ a_297_47# a_193_413# a_27_47#
X0 a_297_47# a_27_47# a_193_413# VNB sky130_fd_pr__nfet_01v8 ad=0.0441 pd=0.63 as=0.109 ps=1.36 w=0.42 l=0.15
X1 a_369_47# B a_297_47# VNB sky130_fd_pr__nfet_01v8 ad=0.0735 pd=0.77 as=0.0441 ps=0.63 w=0.42 l=0.15
X2 VPWR D a_193_413# VPB sky130_fd_pr__pfet_01v8_hvt ad=0.141 pd=1.33 as=0.0662 ps=0.735 w=0.42 l=0.15
X3 X a_193_413# VGND VNB sky130_fd_pr__nfet_01v8 ad=0.169 pd=1.82 as=0.103 ps=1 w=0.65 l=0.15
X4 VPWR A_N a_27_47# VPB sky130_fd_pr__pfet_01v8_hvt ad=0.0567 pd=0.69 as=0.109 ps=1.36 w=0.42 l=0.15
X5 VGND D a_469_47# VNB sky130_fd_pr__nfet_01v8 ad=0.103 pd=1 as=0.0609 ps=0.71 w=0.42 l=0.15
X6 X a_193_413# VPWR VPB sky130_fd_pr__pfet_01v8_hvt ad=0.26 pd=2.52 as=0.141 ps=1.33 w=1 l=0.15
X7 VPWR B a_193_413# VPB sky130_fd_pr__pfet_01v8_hvt ad=0.128 pd=1.03 as=0.0987 ps=0.89 w=0.42 l=0.15
X8 a_193_413# C VPWR VPB sky130_fd_pr__pfet_01v8_hvt ad=0.0662 pd=0.735 as=0.128 ps=1.03 w=0.42 l=0.15
X9 a_193_413# a_27_47# VPWR VPB sky130_fd_pr__pfet_01v8_hvt ad=0.0987 pd=0.89 as=0.0567 ps=0.69 w=0.42 l=0.15
X10 a_469_47# C a_369_47# VNB sky130_fd_pr__nfet_01v8 ad=0.0609 pd=0.71 as=0.0735 ps=0.77 w=0.42 l=0.15
X11 VGND A_N a_27_47# VNB sky130_fd_pr__nfet_01v8 ad=0.109 pd=1.36 as=0.109 ps=1.36 w=0.42 l=0.15
C0 VGND a_369_47# 0.00505f
C1 VPWR B 0.0186f
C2 A_N VPWR 0.02f
C3 VGND a_297_47# 0.00183f
C4 VPB a_193_413# 0.0644f
C5 D a_193_413# 0.155f
C6 a_193_413# X 0.108f
C7 VGND B 0.037f
C8 a_193_413# C 0.0389f
C9 A_N VGND 0.0205f
C10 B a_27_47# 0.0794f
C11 A_N a_27_47# 0.237f
C12 VPWR a_193_413# 0.281f
C13 a_369_47# B 0.00129f
C14 VPB D 0.0763f
C15 VPB X 0.0108f
C16 VPB C 0.0742f
C17 a_469_47# a_193_413# 0.00109f
C18 D X 0.0168f
C19 D C 0.183f
C20 C X 0.00479f
C21 VPB VPWR 0.0818f
C22 B a_297_47# 0.00353f
C23 VGND a_193_413# 0.0915f
C24 D VPWR 0.0186f
C25 VPWR X 0.0586f
C26 a_27_47# a_193_413# 0.125f
C27 VPWR C 0.0182f
C28 D a_469_47# 0.00183f
C29 a_469_47# X 0.001f
C30 a_469_47# C 0.00202f
C31 a_369_47# a_193_413# 0.00181f
C32 VPB VGND 0.0123f
C33 VPB a_27_47# 0.092f
C34 D VGND 0.0372f
C35 a_469_47# VPWR 7.77e-19
C36 VGND X 0.0588f
C37 VGND C 0.0395f
C38 a_193_413# a_297_47# 0.00137f
C39 VGND VPWR 0.0727f
C40 VPWR a_27_47# 0.106f
C41 a_369_47# C 0.00448f
C42 B a_193_413# 0.144f
C43 A_N a_193_413# 0.00151f
C44 a_469_47# VGND 0.00551f
C45 VPWR a_369_47# 6.65e-19
C46 VPB B 0.089f
C47 A_N VPB 0.0832f
C48 VGND a_27_47# 0.103f
C49 B C 0.164f
C50 VPWR a_297_47# 2.82e-19
C51 VGND VNB 0.456f
C52 X VNB 0.0934f
C53 VPWR VNB 0.368f
C54 D VNB 0.123f
C55 C VNB 0.108f
C56 B VNB 0.12f
C57 A_N VNB 0.198f
C58 VPB VNB 0.782f
C59 a_193_413# VNB 0.136f
C60 a_27_47# VNB 0.224f
.ends

.subckt sky130_fd_sc_hd__and3b_1 A_N B C VGND VNB VPB VPWR X a_109_93# a_368_53# a_209_311#
+ a_296_53#
X0 a_109_93# A_N VGND VNB sky130_fd_pr__nfet_01v8 ad=0.108 pd=1.36 as=0.109 ps=1.36 w=0.42 l=0.15
X1 X a_209_311# VPWR VPB sky130_fd_pr__pfet_01v8_hvt ad=0.26 pd=2.52 as=0.142 ps=1.34 w=1 l=0.15
X2 a_109_93# A_N VPWR VPB sky130_fd_pr__pfet_01v8_hvt ad=0.109 pd=1.36 as=0.109 ps=1.36 w=0.42 l=0.15
X3 a_296_53# a_109_93# a_209_311# VNB sky130_fd_pr__nfet_01v8 ad=0.0441 pd=0.63 as=0.108 ps=1.36 w=0.42 l=0.15
X4 VPWR C a_209_311# VPB sky130_fd_pr__pfet_01v8_hvt ad=0.142 pd=1.34 as=0.0744 ps=0.815 w=0.42 l=0.15
X5 a_368_53# B a_296_53# VNB sky130_fd_pr__nfet_01v8 ad=0.0536 pd=0.675 as=0.0441 ps=0.63 w=0.42 l=0.15
X6 X a_209_311# VGND VNB sky130_fd_pr__nfet_01v8 ad=0.169 pd=1.82 as=0.122 ps=1.08 w=0.65 l=0.15
X7 a_209_311# B VPWR VPB sky130_fd_pr__pfet_01v8_hvt ad=0.0744 pd=0.815 as=0.0567 ps=0.69 w=0.42 l=0.15
X8 VPWR a_109_93# a_209_311# VPB sky130_fd_pr__pfet_01v8_hvt ad=0.0567 pd=0.69 as=0.108 ps=1.36 w=0.42 l=0.15
X9 VGND C a_368_53# VNB sky130_fd_pr__nfet_01v8 ad=0.122 pd=1.08 as=0.0536 ps=0.675 w=0.42 l=0.15
C0 VGND a_368_53# 0.0031f
C1 C A_N 7.6e-19
C2 VPWR a_368_53# 4.26e-19
C3 X A_N 1.44e-19
C4 B a_109_93# 0.0802f
C5 VGND B 0.00796f
C6 B VPWR 0.131f
C7 a_209_311# A_N 0.00515f
C8 VPB a_109_93# 0.0652f
C9 VGND VPB 0.00909f
C10 VPB VPWR 0.104f
C11 X C 0.0176f
C12 C a_209_311# 0.19f
C13 B A_N 2.03e-19
C14 X a_209_311# 0.0877f
C15 a_296_53# a_209_311# 0.0049f
C16 C a_368_53# 0.00415f
C17 VPB A_N 0.111f
C18 B C 0.0671f
C19 a_368_53# a_209_311# 0.0026f
C20 X B 0.00119f
C21 VGND a_109_93# 0.0784f
C22 VPWR a_109_93# 0.0984f
C23 VPB C 0.0339f
C24 VGND VPWR 0.0657f
C25 B a_209_311# 0.0609f
C26 X VPB 0.0119f
C27 VPB a_209_311# 0.0515f
C28 a_109_93# A_N 0.117f
C29 VGND A_N 0.045f
C30 VPWR A_N 0.0513f
C31 B VPB 0.0914f
C32 C a_109_93# 3.91e-20
C33 VGND C 0.0678f
C34 VPWR C 0.005f
C35 VGND X 0.0647f
C36 a_296_53# a_109_93# 1.84e-19
C37 X VPWR 0.0732f
C38 VGND a_296_53# 6.07e-19
C39 a_109_93# a_209_311# 0.168f
C40 VGND a_209_311# 0.131f
C41 a_296_53# VPWR 1.15e-19
C42 VPWR a_209_311# 0.155f
C43 VGND VNB 0.44f
C44 X VNB 0.0925f
C45 C VNB 0.114f
C46 B VNB 0.101f
C47 VPWR VNB 0.342f
C48 A_N VNB 0.197f
C49 VPB VNB 0.693f
C50 a_209_311# VNB 0.143f
C51 a_109_93# VNB 0.158f
.ends

.subckt sky130_fd_sc_hd__clkbuf_4 A VGND VNB VPB VPWR X a_27_47#
X0 VPWR A a_27_47# VPB sky130_fd_pr__pfet_01v8_hvt ad=0.165 pd=1.33 as=0.265 ps=2.53 w=1 l=0.15
X1 VGND a_27_47# X VNB sky130_fd_pr__nfet_01v8 ad=0.122 pd=1.42 as=0.0588 ps=0.7 w=0.42 l=0.15